[TITLE]
;;Project Title/Notes
Scenario Run :  NRCSDMENSIONLESS

[OPTIONS]
;;Option             Value
FLOW_UNITS           CFS
INFILTRATION         CURVE_NUMBER
FLOW_ROUTING         DYNWAVE
LINK_OFFSETS         DEPTH
MIN_SLOPE            0
ALLOW_PONDING        NO
SKIP_STEADY_STATE    NO

IGNORE_SNOWMELT      YES
IGNORE_GROUNDWATER   YES
IGNORE_QUALITY       YES
START_DATE           07/15/1977
START_TIME           00:00:00
REPORT_START_DATE    07/15/1977
REPORT_START_TIME    00:00:00
END_DATE             07/16/1977
END_TIME             06:00:00
SWEEP_START          01/01
SWEEP_END            01/01
DRY_DAYS             7.000000
REPORT_STEP          00:01:00
WET_STEP             00:05:00
DRY_STEP             00:05:00
ROUTING_STEP         0:00:10 
RULE_STEP            00:00:00

INERTIAL_DAMPING     NONE
NORMAL_FLOW_LIMITED  BOTH
FORCE_MAIN_EQUATION  H-W
VARIABLE_STEP        0.75
LENGTHENING_STEP     0
MIN_SURFAREA         12.566000
MAX_TRIALS           4
HEAD_TOLERANCE       0.005000
SYS_FLOW_TOL         5
LAT_FLOW_TOL         5
MINIMUM_STEP         0
THREADS              1

[EVAPORATION]
;;Data Source    Parameters
;;-------------- ----------------
CONSTANT         0.000000
RECOVERY         EVAPORATION
DRY_ONLY         NO

[RAINGAGES]
;;Name           Format    Interval SCF      Source    
;;-------------- --------- ------ ------ ----------
GAGE98           INTENSITY 1.000000 1.000000 TIMESERIES 25YEAR          
GAGE500YEAR      INTENSITY 1.000000 1.000000 TIMESERIES 500YEAR         

[SUBCATCHMENTS]
;;Name           Rain Gage        Outlet           Area     %Imperv  Width    %Slope   CurbLen  SnowPack        
;;-------------- ---------------- ---------------- -------- -------- -------- -------- -------- ----------------
45               GAGE98           A                1        0        45       1        0                        
47.5             GAGE98           A                1        0        47.5     1        0                        
50               GAGE98           A                1        0        50       1        0                        
52.5             GAGE98           A                1        0        52.5     1        0                        
55               GAGE98           A                1        0        55       1        0                        
57.5             GAGE98           A                1        0        57.5     1        0                        
60               GAGE98           A                1        0        60       1        0                        
62.5             GAGE98           A                1        0        62.5     1        0                        
65               GAGE98           A                1        0        65       1        0                        
67.5             GAGE98           A                1        0        67.5     1        0                        
70               GAGE98           A                1        0        70       1        0                        
72.5             GAGE98           A                1        0        72.5     1        0                        
75               GAGE98           A                1        0        75       1        0                        
77.5             GAGE98           A                1        0        77.5     1        0                        
80               GAGE98           A                1        0        80       1        0                        
82.5             GAGE98           A                1        0        82.5     1        0                        
85               GAGE98           A                1        0        85       1        0                        
84               GAGE98           A                1        0        84       1        0                        
83               GAGE98           A                1        0        83       1        0                        
82               GAGE98           A                1        0        82       1        0                        
81               GAGE98           A                1        0        81       1        0                        
86.5             GAGE98           A                1        0        86.5     1        0                        
87               GAGE98           A                1        0        87       1        0                        
86               GAGE98           A                1        0        86       1        0                        
88               GAGE98           A                1        0        88       1        0                        
87.5             GAGE98           A                1        0        87.5     1        0                        
89               GAGE98           A                1        0        89       1        0                        
90               GAGE98           A                1        0        90       1        0                        
92.5             GAGE98           A                1        0        92.5     1        0                        
91               GAGE98           A                1        0        91       1        0                        
92               GAGE98           A                1        0        92       1        0                        
93               GAGE98           A                1        0        93       1        0                        
94               GAGE98           A                1        0        94       1        0                        
95               GAGE98           A                1        0        95       1        0                        
96.5             GAGE98           A                1        0        96.5     1        0                        
97               GAGE98           A                1        0        97       1        0                        
96               GAGE98           A                1        0        96       1        0                        
98               GAGE98           A                1        0        98       1        0                        
99               GAGE98           A                1        0        99       1        0                        

[SUBAREAS]
;;Subcatchment   N-Imperv   N-Perv     S-Imperv   S-Perv     PctZero    RouteTo    PctRouted 
;;-------------- ---------- ---------- ---------- ---------- ---------- ---------- ----------
45               0.01       0.1        0.05       0.05       25         OUTLET    
47.5             0.01       0.1        0.05       0.05       25         OUTLET    
50               0.01       0.1        0.05       0.05       25         OUTLET    
52.5             0.01       0.1        0.05       0.05       25         OUTLET    
55               0.01       0.1        0.05       0.05       25         OUTLET    
57.5             0.01       0.1        0.05       0.05       25         OUTLET    
60               0.01       0.1        0.05       0.05       25         OUTLET    
62.5             0.01       0.1        0.05       0.05       25         OUTLET    
65               0.01       0.1        0.05       0.05       25         OUTLET    
67.5             0.01       0.1        0.05       0.05       25         OUTLET    
70               0.01       0.1        0.05       0.05       25         OUTLET    
72.5             0.01       0.1        0.05       0.05       25         OUTLET    
75               0.01       0.1        0.05       0.05       25         OUTLET    
77.5             0.01       0.1        0.05       0.05       25         OUTLET    
80               0.01       0.1        0.05       0.05       25         OUTLET    
82.5             0.01       0.1        0.05       0.05       25         OUTLET    
85               0.01       0.1        0.05       0.05       25         OUTLET    
84               0.01       0.1        0.05       0.05       25         OUTLET    
83               0.01       0.1        0.05       0.05       25         OUTLET    
82               0.01       0.1        0.05       0.05       25         OUTLET    
81               0.01       0.1        0.05       0.05       25         OUTLET    
86.5             0.01       0.1        0.05       0.05       25         OUTLET    
87               0.01       0.1        0.05       0.05       25         OUTLET    
86               0.01       0.1        0.05       0.05       25         OUTLET    
88               0.01       0.1        0.05       0.05       25         OUTLET    
87.5             0.01       0.1        0.05       0.05       25         OUTLET    
89               0.01       0.1        0.05       0.05       25         OUTLET    
90               0.01       0.1        0.05       0.05       25         OUTLET    
92.5             0.01       0.1        0.05       0.05       25         OUTLET    
91               0.01       0.1        0.05       0.05       25         OUTLET    
92               0.01       0.1        0.05       0.05       25         OUTLET    
93               0.01       0.1        0.05       0.05       25         OUTLET    
94               0.01       0.1        0.05       0.05       25         OUTLET    
95               0.01       0.1        0.05       0.05       25         OUTLET    
96.5             0.01       0.1        0.05       0.05       25         OUTLET    
97               0.01       0.1        0.05       0.05       25         OUTLET    
96               0.01       0.1        0.05       0.05       25         OUTLET    
98               0.01       0.1        0.05       0.05       25         OUTLET    
99               0.01       0.1        0.05       0.05       25         OUTLET    

[INFILTRATION]
;;Subcatchment   CurveNum              DryTime   
;;-------------- ---------- ---------- ----------
45               45.000000  1.000000   1.000000  
47.5             47.500000  1.000000   1.000000  
50               50.000000  1.000000   1.000000  
52.5             52.500000  1.000000   1.000000  
55               55.000000  1.000000   1.000000  
57.5             57.500000  1.000000   1.000000  
60               60.000000  1.000000   1.000000  
62.5             62.500000  1.000000   1.000000  
65               65.000000  1.000000   1.000000  
67.5             67.500000  1.000000   1.000000  
70               70.000000  1.000000   1.000000  
72.5             72.500000  1.000000   1.000000  
75               75.000000  1.000000   1.000000  
77.5             77.500000  1.000000   1.000000  
80               80.000000  1.000000   1.000000  
82.5             82.500000  1.000000   1.000000  
85               85.000000  1.000000   1.000000  
84               84.000000  1.000000   1.00000   
83               83.000000  1.000000   1.00000   
82               82.000000  1.000000   1.00000   
81               81.000000  1.000000   1.00000   
86.5             86.500000  1.000000   1.00000   
87               87.000000  1.000000   1.000000  
86               86.000000  1.000000   1.000000  
88               88.000000  1.000000   1.000000  
87.5             87.500000  1.000000   1.000000  
89               89.000000  1.000000   1.000000  
90               90.000000  1.000000   1.000000  
92.5             92.500000  1.000000   1.000000  
91               91.000000  1.000000   1.000000  
92               92.000000  1.000000   1.000000  
93               93.000000  1.000000   1.000000  
94               94.000000  1.000000   1.000000  
95               95.000000  1.000000   1.000000  
96.5             96.500000  1.000000   1.000000  
97               97.000000  1.000000   1.000000  
96               96.000000  1.000000   1.000000  
98               98.000000  1.000000   1.000000  
99               99.000000  1.000000   1.000000  

[LID_CONTROLS]
;;Name           Type/Layer Parameters
;;-------------- ---------- ----------
LID-102          BC
LID-102          SURFACE    1.000000   0.100000   0.100000   1.000000   5.000000  
LID-102          SOIL       1.000000   0.500000   0.200000   0.100000   0.500000   10.000000  3.500000  
LID-102          STORAGE    1.000000   0.750000   0.500000   0.000000  
LID-102          DRAIN      0.000000   0.500000   6.000000   6.000000   0          0                    

BR               BC
BR               SURFACE    1.000000   0.100000   0.100000   1.000000   5.000000  
BR               SOIL       1.000000   0.500000   0.200000   0.100000   0.500000   10.000000  3.500000  
BR               STORAGE    1.000000   0.750000   0.500000   0.000000  
BR               DRAIN      0.000000   0.500000   6.000000   6.000000   0          0                    

RG               RG
RG               SURFACE    5.000000   0.100000   0.100000   1.000000   5.000000  
RG               SOIL       1.000000   0.500000   0.200000   0.100000   0.500000   10.000000  3.500000  
RG               STORAGE    1.000000   0.750000   0.500000   0.000000  

[LID_USAGE]
;;Subcatchment   LID Process      Number  Area       Width      InitSat    FromImp    ToPerv     RptFile                  DrainTo          FromPerv  
;;-------------- ---------------- ------- ---------- ---------- ---------- ---------- ---------- ------------------------ ---------------- ----------

[AQUIFERS]
;;Name           Por    WP     FC     Ksat   Kslope Tslope ETu    ETs    Seep   Ebot   Egw    Umc    ETupat 
;;-------------- ------ ------ ------ ------ ------ ------ ------ ------ ------ ------ ------ ------ ------
AQ               0.500000 0.150000 0.300000 10.000000 1.000000 15.000000 0.350000 0.350000 0.002000 0.000000 5.000000 0.250000       

[GROUNDWATER]
;;Subcatchment   Aquifer          Node             Esurf  A1     B1     A2     B2     A3     Dsw    Egwt   Ebot   Wgr    Umc   
;;-------------- ---------------- ---------------- ------ ------ ------ ------ ------ ------ ------ ------ ------ ------ ------
92.5             AQ               A                0.000000 1.000000 1.000000 1.000000 1.000000 0.000000 0.000000 0.000000 0.000000 0.000000 0.250000
95               AQ               B                0.000000 1.000000 1.000000 1.000000 1.000000 0.000000 0.000000 0.000000 0.000000 0.000000 0.250000
96.5             AQ               A                0.000000 1.000000 1.000000 1.000000 1.000000 0.000000 0.000000 0.000000 0.000000 0.000000 0.250000
98               AQ               C                0.000000 1.000000 1.000000 1.000000 1.000000 0.000000 0.000000 0.000000 0.000000 0.000000 0.250000

[JUNCTIONS]
;;Name           Elevation  MaxDepth   InitDepth  SurDepth   Aponded   
;;-------------- ---------- ---------- ---------- ---------- ----------
D                1.100000   20.000000  0.000000   0.000000   0.000000  
A                9.000000   20.000000  0.000000   0.000000   0.000000  
B                8.000000   6.000000   0.000000   0.000000   0.000000  
; New Junction
E                0.500000   4.000000   0.000000   0.000000   0.000000  
C                3.000000   5.000000   0.000000   0.000000   0.000000  

[OUTFALLS]
;;Name           Elevation  Type       Stage Data       Gated    Route To        
;;-------------- ---------- ---------- ---------------- -------- ----------------
OUTLET           0.000000   FREE                        NO                       

[CONDUITS]
;;Name           From Node        To Node          Length     Roughness  InOffset   OutOffset  InitFlow   MaxFlow   
;;-------------- ---------------- ---------------- ---------- ---------- ---------- ---------- ---------- ----------
A                D                E                220.000000 0.015000   0.000000   0.000000   0.000000   0.000000  
B                C                D                182.780407 0.015000   0.000000   0.000000   0.000000   0.000000  
C                A                B                505.000000 0.024000   0.000000   0.000000   0.000000   0.000000  
D                B                C                263.256269 0.024000   0.000000   0.000000   0.000000   0.000000  
; New Conduit
F                E                OUTLET           255.174254 0.015000   0.000000   0.000000   0.000000   0.000000  

[XSECTIONS]
;;Link           Shape        Geom1            Geom2      Geom3      Geom4      Barrels    Culvert   
;;-------------- ------------ ---------------- ---------- ---------- ---------- ---------- ----------
A                CIRCULAR     0.300000         0.000000   0.000000   0.000000   98         0         
B                CIRCULAR     0.300000         0.000000   0.000000   0.000000   98         0         
C                CIRCULAR     0.300000         0.000000   0.000000   0.000000   98         0         
D                CIRCULAR     0.300000         0.000000   0.000000   0.000000   98         0         
F                CIRCULAR     0.300000         0.000000   0.000000   0.000000   98         0         

[LOSSES]
;;Link           Kentry     Kexit      Kavg       Flap Gate  Seepage   
;;-------------- ---------- ---------- ---------- ---------- ----------
A                0.000000   0.000000   0.000000   NO         0.100000  
B                0.000000   0.000000   0.000000   NO         0.100000  
C                0.000000   0.000000   0.000000   NO         0.000000  
D                0.000000   0.000000   0.000000   NO         0.000000  
F                0.000000   0.000000   0.000000   NO         0.100000  

[CONTROLS]













[INFLOWS]
;;Node           Constituent      Time Series      Type     Mfactor  Sfactor  Baseline Pattern
;;-------------- ---------------- ---------------- -------- -------- -------- -------- --------
B                FLOW             ""               FLOW     1.0      1.000000 0.000000

[DWF]
;;Node           Constituent      Baseline   Patterns  
;;-------------- ---------------- ---------- ----------
D                FLOW             0.031270  
A                FLOW             0.031270  
B                FLOW             0.031270  
C                FLOW             0.031270  

[HYDROGRAPHS]
;;Hydrograph     Rain Gage/Month  Response R        T        K        Dmax     Drecov   Dinit   
;;-------------- ---------------- -------- -------- -------- -------- -------- -------- --------
2050RTK          GAGE98          
2050RTK          All              Short    0.020000 1.000000 1.000000 1.000000 1.000000 0.000000
2050RTK          All              Medium   0.020000 2.000000 2.000000 1.000000 1.000000 0.000000
2050RTK          All              Long     0.020000 3.000000 3.000000 1.000000 1.000000 0.000000
BASERTK          GAGE98          
BASERTK          All              Short    0.010000 1.000000 2.000000 1.000000 1.000000 0.000000
BASERTK          All              Medium   0.010000 2.000000 3.000000 1.000000 1.000000 0.000000
BASERTK          All              Long     0.010000 3.000000 4.000000 1.000000 1.000000 0.000000


[CURVES]
;;Name           Type       X-Value    Y-Value   
;;-------------- ---------- ---------- ----------
CUNETTE          SHAPE      0.000000   0.000000  
CUNETTE                     0.020000   0.140000  
CUNETTE                     0.040000   0.195950  
CUNETTE                     0.060000   0.237500  
CUNETTE                     0.080000   0.271300  
CUNETTE                     0.100000   0.300000  
CUNETTE                     0.120000   0.324950  
CUNETTE                     0.140000   0.347000  
CUNETTE                     0.160000   0.366600  
CUNETTE                     0.180000   0.384200  
CUNETTE                     0.200000   0.400000  
CUNETTE                     0.220000   0.414250  
CUNETTE                     0.240000   0.427100  
CUNETTE                     0.260000   0.438650  
CUNETTE                     0.280000   0.449000  
CUNETTE                     0.300000   0.458250  
CUNETTE                     0.320000   0.933000  
CUNETTE                     0.340000   0.947400  
CUNETTE                     0.360000   0.960000  
CUNETTE                     0.380000   0.970800  
CUNETTE                     0.400000   0.979800  
CUNETTE                     0.420000   0.987100  
CUNETTE                     0.440000   0.992800  
CUNETTE                     0.460000   0.996800  
CUNETTE                     0.480000   0.999200  
CUNETTE                     0.500000   1.000000  
CUNETTE                     0.520000   0.999200  
CUNETTE                     0.540000   0.996800  
CUNETTE                     0.560000   0.992800  
CUNETTE                     0.580000   0.987100  
CUNETTE                     0.600000   0.979800  
CUNETTE                     0.620000   0.970800  
CUNETTE                     0.640000   0.960000  
CUNETTE                     0.660000   0.947400  
CUNETTE                     0.680000   0.933000  
CUNETTE                     0.700000   0.916500  
CUNETTE                     0.720000   0.898000  
CUNETTE                     0.740000   0.877300  
CUNETTE                     0.760000   0.854200  
CUNETTE                     0.780000   0.828500  
CUNETTE                     0.800000   0.800000  
CUNETTE                     0.820000   0.768400  
CUNETTE                     0.840000   0.733200  
CUNETTE                     0.860000   0.694000  
CUNETTE                     0.880000   0.649900  
CUNETTE                     0.900000   0.600000  
CUNETTE                     0.920000   0.542600  
CUNETTE                     0.940000   0.475000  
CUNETTE                     0.960000   0.391900  
CUNETTE                     0.980000   0.280000  
CUNETTE                     1.000000   0.000000  

[TIMESERIES]
;;Name           Date       Time       Value     
;;-------------- ---------- ---------- ----------
RAINSERIES98     07/15/1977 06:30      0.000000  
RAINSERIES98                06:35      0.840000  
RAINSERIES98                06:40      0.040000  
RAINSERIES98                06:45      0.020000  
RAINSERIES98                06:50      0.000000  
RAINSERIES98                07:05      0.000000  
RAINSERIES98                07:10      0.680000  
RAINSERIES98                07:15      0.880000  
RAINSERIES98     07/15/1977 07:20      2.020000  
RAINSERIES98                07:25      2.130000  
RAINSERIES98                07:30      0.630000  
RAINSERIES98                07:35      2.330000  
RAINSERIES98                07:40      0.310000  
RAINSERIES98     07/15/1977 07:45      0.200000  
RAINSERIES98                07:50      0.000000  
RAINSERIES98                08:00      0.000000  
RAINSERIES98                08:05      0.020000  
RAINSERIES98     07/15/1977 08:10      0.000000  
RAINSERIES98                08:25      0.000000  
RAINSERIES98                08:30      0.220000  
RAINSERIES98     07/15/1977 08:35      2.390000  
RAINSERIES98                08:40      0.400000  
RAINSERIES98                08:45      0.860000  
RAINSERIES98                08:50      2.790000  
RAINSERIES98                08:55      1.380000  
RAINSERIES98     07/15/1977 09:00      1.080000  
RAINSERIES98                09:05      0.640000  
RAINSERIES98                09:10      0.020000  
RAINSERIES98                09:15      0.150000  
RAINSERIES98                09:20      0.000000  
;
CONSTANTRAIN                0:00       0.000000  
CONSTANTRAIN                1:00       0.000000  
CONSTANTRAIN                2:00       1.000000  
CONSTANTRAIN                3:00       0.000000  
;
10YEAR                      0:00       0.000000  
10YEAR                      1:00       0.000000  
10YEAR                      2:00       3.500000  
10YEAR                      3:00       0.000000  
;
25YEAR                      0:00       0.000000  
25YEAR                      1:00       0.000000  
25YEAR                      2:00       5.000000  
25YEAR                      3:00       0.000000  
;
50YEAR                      0:00       0.000000  
50YEAR                      1:00       0.000000  
50YEAR                      2:00       7.000000  
50YEAR                      3:00       0.000000  
;
100YEAR                     0:00       2.272727  
100YEAR                     1:00       4.545455  
100YEAR                     2:00       11.363636 
100YEAR                     3:00       4.545455  
100YEAR                     4:00       2.272727  
100YEAR                     5:00       0.000000  
;
500YEAR                     0:00       0.000000  
500YEAR                     1:00       0.000000  
500YEAR                     2:00       15.000000 
500YEAR                     3:00       0.000000  

[PATTERNS]
;;Name           Type       Multipliers
;;-------------- ---------- -----------
EVAPORATION      MONTHLY    5.000000 5.000000 2.000000 2.000000 3.000000 3.000000
EVAPORATION                 2.000000 2.000000 2.000000 1.000000 1.000000 1.000000
;
NORMALDAYS       DAILY      1.000000 1.000000 1.000000 0.000000 1.000000 1.000000 1.000000
;
ODDDATYPATTERN   HOURLY     0.000000 0.000000 0.000000 0.000000 0.000000 0.000000
ODDDATYPATTERN              0.000000 1.000000 1.000000 1.000000 1.000000 1.000000
ODDDATYPATTERN              0.000000 0.000000 0.000000 1.000000 1.000000 1.000000
ODDDATYPATTERN              1.000000 1.000000 0.000000 0.000000 0.000000 0.000000
;
ONEDAY           DAILY      0.000000 0.000000 0.000000 1.000000 0.000000 0.000000 0.000000

[REPORT]
;;Reporting Options
INPUT      YES
SUBCATCHMENTS ALL
NODES ALL
LINKS ALL

[TAGS]

[MAP]
DIMENSIONS 814567.018 299030.015 824477.113 308798.199
Units      None

[COORDINATES]
;;Node           X-Coord            Y-Coord           
;;-------------- ------------------ ------------------
D                815765.072         301432.214        
A                817598.029         301648.526        
B                817017.403         301557.447        
E                815059.212         301375.290        
C                816493.701         301500.523        
OUTLET           814353.353         301170.363        

[VERTICES]
;;Link           X-Coord            Y-Coord           
;;-------------- ------------------ ------------------

[Polygons]
;;Subcatchment   X-Coord            Y-Coord           
;;-------------- ------------------ ------------------
45               820273.881         301435.136        
45               820075.728         300944.078        
45               820414.543         300323.375        
45               820072.772         300487.931        
45               819656.810         300487.931        
45               819240.848         300383.941        
45               818957.537         300317.279        
45               818915.123         300904.576        
45               818897.317         301299.588        
45               818989.825         301475.002        
45               819243.779         301494.495        
45               819426.346         301500.028        
45               819725.092         301511.092        
45               819968.515         301488.963        
45               820073.629         301428.107        
45               820273.881         301435.136        
47.5             819752.754         302916.305        
47.5             819697.430         303071.210        
47.5             819592.316         303298.036        
47.5             819536.993         303607.846        
47.5             819514.863         303834.672        
47.5             819531.235         304101.089        
47.5             819608.188         304076.599        
47.5             819834.075         303763.500        
47.5             820183.836         303468.605        
47.5             820543.812         303242.407        
47.5             820416.994         302513.741        
47.5             820239.599         302606.494        
47.5             820073.629         302783.529        
47.5             819979.579         302833.320        
47.5             819752.754         302916.305        
50               821582.525         301346.122        
50               821534.164         301605.142        
50               821528.632         301787.709        
50               821543.041         302011.057        
50               821749.766         302087.777        
50               822570.889         301570.561        
50               822341.909         301576.266        
50               822139.908         301598.286        
50               821930.562         301594.616        
50               821724.888         301535.895        
50               821662.451         301418.454        
50               821582.525         301346.122        
52.5             822341.909         301576.266        
52.5             822570.889         301570.561        
52.5             822775.437         301592.922        
52.5             822701.486         301157.023        
52.5             822618.501         300742.098        
52.5             822574.243         300448.885        
52.5             822585.307         300150.139        
52.5             822651.695         299923.313        
52.5             822728.194         299716.726        
52.5             822672.535         299656.007        
52.5             822152.583         299474.023        
52.5             821684.625         299708.002        
52.5             821164.673         299941.981        
52.5             821018.893         300019.730        
52.5             821328.047         300330.563        
52.5             821398.013         300460.572        
52.5             821394.908         300542.268        
52.5             821375.976         301040.439        
52.5             821467.795         301242.292        
52.5             821662.451         301418.454        
52.5             821724.888         301535.895        