[TITLE]
;;Project Title/Notes

[OPTIONS]
;;Option             Value
FLOW_UNITS           CMS
INFILTRATION         HORTON
FLOW_ROUTING         DYNWAVE
LINK_OFFSETS         ELEVATION
MIN_SLOPE            0
ALLOW_PONDING        YES
SKIP_STEADY_STATE    NO

START_DATE           05/25/2010
START_TIME           00:00:00
REPORT_START_DATE    05/25/2010
REPORT_START_TIME    00:00:00
END_DATE             05/26/2010
END_TIME             12:00:00
SWEEP_START          01/01
SWEEP_END            12/31
DRY_DAYS             0
REPORT_STEP          00:00:30
WET_STEP             00:01:00
DRY_STEP             00:01:00
ROUTING_STEP         0:00:10 
RULE_STEP            00:00:00

INERTIAL_DAMPING     NONE
NORMAL_FLOW_LIMITED  BOTH
FORCE_MAIN_EQUATION  H-W
VARIABLE_STEP        0.75
LENGTHENING_STEP     10
MIN_SURFAREA         1.14
MAX_TRIALS           8
HEAD_TOLERANCE       0.0015
SYS_FLOW_TOL         5
LAT_FLOW_TOL         5
MINIMUM_STEP         0
THREADS              1

[EVAPORATION]
;;Data Source    Parameters
;;-------------- ----------------
CONSTANT         2.54
DRY_ONLY         NO

[RAINGAGES]
;;Name           Format    Interval SCF      Source    
;;-------------- --------- ------ ------ ----------
PLUIE_PROJET     INTENSITY 0:05     1.0      TIMESERIES SEA10A1H_F      
U14B             INTENSITY 0:05     1.0      TIMESERIES SEA2A1H_F       
U433             INTENSITY 0:05     1.0      TIMESERIES SEA2A1H_F       

[SUBCATCHMENTS]
;;Name           Rain Gage        Outlet           Area     %Imperv  Width    %Slope   CurbLen  SnowPack        
;;-------------- ---------------- ---------------- -------- -------- -------- -------- -------- ----------------
; bassins tributaires site de mesures # DUB-4.B
DUB-00           U433             R009897          0.386    100      124.2    2        0                        
DUB-02           U433             R009658          0.244    100      98.7     2        0                        
DUB-21           U433             R006334          0.0001   100      2        2        0                        
DUB-22           U433             R006767          0.184    100      85.7     2        0                        
DUB-23           U433             R006776          0.149    100      77.3     2        0                        
DUB-24           U433             R006714          0.709    100      168.5    2        0                        
DUB-25           U433             R006337          0.587    100      153.3    2        0                        
DUB-26           U433             R006729          0.221    100      94       2        0                        
DUB-27           U433             R006787          0.046    100      42.8     2        0                        
DUB-28           U433             R006334          0.0001   100      2        2        0                        
DUB-32           U433             R009658          0.811    100      180.1    2        0                        
DUB-33           U433             R009676          0.639    100      159.9    2        0                        
DUB-34           U433             R006729          0.0001   100      2        2        0                        
DUB-35           U433             R006334          0.141    100      75       2        0                        
; bassin tributaire site de mesures # DUB-4.A
DUB-30           U433             R006769          0.18     100      84.8     2        0                        
; bassins tributaires site de mesures # DUB-3.B
DUB-04           U433             R014421          0.334    100      115.6    2        0                        
DUB-05           U433             R014421          0.471    100      137.3    2        0                        
DUB-10           U433             R017469          1.071    100      207      2        0                        
DUB-13           U433             R014877          2.345    100      306.3    2        0                        
DUB-36           U433             R014877          0.952    100      195.1    2        0                        
; bassins tributaires site de mesures # DUB-3.A
DUB-11           U433             R017473          0.284    100      106.5    2        0                        
; bassins tributaires site de mesures # DUB-2
DUB-03           U433             R014414          0.042    100      40.8     2        0                        
DUB-12           U433             R009374          0.402    100      126.8    2        0                        
DUB-14           U14B             R017731          1.081    100      207.9    2        0                        
DUB-16           U433             R017731          1.861    100      272.9    2        0                        
DUB-29           U433             RA_9142          0.101    100      63.5     2        0                        
DUB-37           U14B             R017726          0.782    100      176.8    2        0                        
; bassins tributaires site de mesures # DUB-1.B-A
DUB-01           U433             R009885          0.199    100      89.1     2        0                        
DUB-06           U433             R009384          0.063    100      50.2     2        0                        
DUB-08           U14B             R009418          0.148    100      77       2        0                        
DUB-09           U433             R009379          0.425    100      130.4    2        0                        
DUB-15           U14B             R014118          1.426    100      238.8    2        0                        
DUB-17           U14B             R009404          0.296    100      108.8    2        0                        
DUB-18           U14B             R014118          0.667    100      163.3    2        0                        
DUB-19           U14B             R009411          0.183    100      85.5     2        0                        
DUB-20           U14B             R009411          0.012    100      22.2     2        0                        
; bassin tributaire site de mesures # DUB-1.A
DUB-07           U14B             R009873          0.685    100      165.5    2        0                        

[SUBAREAS]
;;Subcatchment   N-Imperv   N-Perv     S-Imperv   S-Perv     PctZero    RouteTo    PctRouted 
;;-------------- ---------- ---------- ---------- ---------- ---------- ---------- ----------
DUB-00           0.013      0.25       1.6        4.7        25         OUTLET    
DUB-02           0.013      0.25       1.6        4.7        25         OUTLET    
DUB-21           0.013      0.25       1.6        4.7        25         OUTLET    
DUB-22           0.013      0.25       1.6        4.7        25         OUTLET    
DUB-23           0.013      0.25       1.6        4.7        25         OUTLET    
DUB-24           0.013      0.25       1.6        4.7        25         OUTLET    
DUB-25           0.013      0.25       1.6        4.7        25         OUTLET    
DUB-26           0.013      0.25       1.6        4.7        25         OUTLET    
DUB-27           0.013      0.25       1.6        4.7        25         OUTLET    
DUB-28           0.013      0.25       1.6        4.7        25         OUTLET    
DUB-32           0.013      0.25       1.6        4.7        25         OUTLET    
DUB-33           0.013      0.25       1.6        4.7        25         OUTLET    
DUB-34           0.013      0.25       1.6        4.7        25         OUTLET    
DUB-35           0.013      0.25       1.6        4.7        25         OUTLET    
DUB-30           0.013      0.25       1.6        4.7        25         OUTLET    
DUB-04           0.013      0.25       1.6        4.7        25         OUTLET    
DUB-05           0.013      0.25       1.6        4.7        25         OUTLET    
DUB-10           0.013      0.25       1.6        4.7        25         OUTLET    
DUB-13           0.013      0.25       1.6        4.7        25         OUTLET    
DUB-36           0.013      0.25       1.6        4.7        25         OUTLET    
DUB-11           0.013      0.25       1.6        4.7        25         OUTLET    
DUB-03           0.013      0.25       1.6        4.7        25         OUTLET    
DUB-12           0.013      0.25       1.6        4.7        25         OUTLET    
DUB-14           0.013      0.25       1.6        4.7        25         OUTLET    
DUB-16           0.013      0.25       1.6        4.7        25         OUTLET    
DUB-29           0.013      0.25       1.6        4.7        25         OUTLET    
DUB-37           0.013      0.25       1.6        4.7        25         OUTLET    
DUB-01           0.013      0.25       1.6        4.7        25         OUTLET    
DUB-06           0.013      0.25       1.6        4.7        25         OUTLET    
DUB-08           0.013      0.25       1.6        4.7        25         OUTLET    
DUB-09           0.013      0.25       1.6        4.7        25         OUTLET    
DUB-15           0.013      0.25       1.6        4.7        25         OUTLET    
DUB-17           0.013      0.25       1.6        4.7        25         OUTLET    
DUB-18           0.013      0.25       1.6        4.7        25         OUTLET    
DUB-19           0.013      0.25       1.6        4.7        25         OUTLET    
DUB-20           0.013      0.25       1.6        4.7        25         OUTLET    
DUB-07           0.013      0.25       1.6        4.7        25         OUTLET    

[INFILTRATION]
;;Subcatchment   MaxRate    MinRate    Decay      DryTime    MaxInfil  
;;-------------- ---------- ---------- ---------- ---------- ----------
DUB-00           129.9      12.5       2          7          0         
DUB-02           129.9      12.5       2          7          0         
DUB-21           129.9      12.5       2          7          0         
DUB-22           129.9      12.5       2          7          0         
DUB-23           129.9      12.5       2          7          0         
DUB-24           129.9      12.5       2          7          0         
DUB-25           129.9      12.5       2          7          0         
DUB-26           129.9      12.5       2          7          0         
DUB-27           129.9      12.5       2          7          0         
DUB-28           129.9      12.5       2          7          0         
DUB-32           129.9      12.5       2          7          0         
DUB-33           129.9      12.5       2          7          0         
DUB-34           129.9      12.5       2          7          0         
DUB-35           129.9      12.5       2          7          0         
DUB-30           129.9      12.5       2          7          0         
DUB-04           129.9      12.5       2          7          0         
DUB-05           129.9      12.5       2          7          0         
DUB-10           129.9      12.5       2          7          0         
DUB-13           129.9      12.5       2          7          0         
DUB-36           129.9      12.5       2          7          0         
DUB-11           129.9      12.5       2          7          0         
DUB-03           129.9      12.5       2          7          0         
DUB-12           129.9      12.5       2          7          0         
DUB-14           129.9      12.5       2          7          0         
DUB-16           129.9      12.5       2          7          0         
DUB-29           129.9      12.5       2          7          0         
DUB-37           129.9      12.5       2          7          0         
DUB-01           129.9      12.5       2          7          0         
DUB-06           129.9      12.5       2          7          0         
DUB-08           129.9      12.5       2          7          0         
DUB-09           129.9      12.5       2          7          0         
DUB-15           129.9      12.5       2          7          0         
DUB-17           129.9      12.5       2          7          0         
DUB-18           129.9      12.5       2          7          0         
DUB-19           129.9      12.5       2          7          0         
DUB-20           129.9      12.5       2          7          0         
DUB-07           129.9      12.5       2          7          0         

[JUNCTIONS]
;;Name           Elevation  MaxDepth   InitDepth  SurDepth   Aponded   
;;-------------- ---------- ---------- ---------- ---------- ----------
;3741
R093130          8.665      2.15       0          0          0         
RA_9142          7.978      3.28       0          0          0         
;3136
R017733          11.671     2.565      0          0          0         
;3124
R017735          12.03      2.4        0          0          0         
;3122
R017731          11.271     2.94       0          0          0         
;3120
R017726          11.926     3.015      0          0          0         
;3074
R017473          8.067      3.33       0          0          0         
;2873
R014882          13.977     3.03       0          0          0         
;2862
R014864          8.455      3.965      0          0          10        
;2858
R014878          10.087     4.03       0          0          0         
;2789
R014418          12.277     3.05       0          0          0         
;2762
R014169          11.069     3.545      0          0          0         
;2840
R014616          8.649      4.22       0          0          0         
;2682
R009892          8.653      4.905      0          0          0         
;2679
R009893          8.734      4.634      0          0          0         
;2669
R009894          8.534      4.54       0          0          0         
;2664
R009885          9.741      3.74       0          0          0         
;2654
R009878          6.709      4.75       0          0          0         
;2642
R009887          10.178     2.568      0          0          0         
;2641
R009873          7.21       5.7        0          0          0         
;2529
R009392          7.77       4.33       0          0          0         
;2526
R009411          11.751     3.295      0          0          0         
;2484
R009374          10.277     3.1        0          0          0         
;2545
R009417          10.37      4.55       0          0          0         
;2537
R009418          10.067     4.45       0          0          0         
;2257
R006790          7.481      5.45       0          0          0         
;2243
R006782          7.977      4.8        0          0          0         
;2242
R006794          8.444      5.21       0          0          0         
;2234
R006785          7.928      5.44       0          0          0         
;2191
R006746          6.028      2.51       0          0          0         
;2186
R006739          7.343      2.562      0          0          0         
;2105
R006337          9.114      5.11       0          0          0         
;2086
R006334          10.193     3.952      0          0          0         
;2220
R006747          5.95       2.464      0          0          0         
;2215
R006775          10.091     2.52       0          0          0         
;2212
R006714          8.27       5.06       0          0          0         
;2206
R006737          7.812      5.51       0          0          0         
;2201
R006741          7.02       2.15       0          0          0         
;2196
R006742          6.835      1.752      0          0          0         
;1726
R093762          8.03       4.5        0          0          0         
;1059
R017469          10.745     3.81       0          0          0         
;876
R014869          8.691      4.712      0          0          0         
;875
R014877          9.731      4.74       0          0          0         
;872
R014875          9.428      5.154      0          0          0         
;866
R014868          9.166      5.554      0          0          0         
;812
R014617          10.55      2.15       0          0          0         
;806
R014411          7.89       3.74       0          0          0         
;794
R014423          8.7        3.65       0          0          0         
;787
R014414          8.381      4.9        0          0          0         
;786
R014422          9.037      3.3        0          0          0         
;778
R014421          8.111      3.71       0          0          0         
;768
R014173          10.845     3.875      0          0          0         
;762
R014328          11.538     3.05       0          0          0         
;752
R014118          11.168     3.18       0          0          0         
;657
R009897          8.372      3.57       0          0          0         
;650
R009879          8.244      2.984      0          0          0         
;642
R009898          8.302      3.277      0          0          0         
;617
R009676          9.184      2.57       0          0          0         
;582
R009658          8.965      2.241      0          0          0         
;547
R009404          10.542     4.495      0          0          0         
;525
R009414          11.709     3.35       0          0          0         
;517
R009380          7.454      5.132      0          0          0         
;512
R009386          8.053      4.59       0          0          0         
;500
R009379          7.626      4.98       0          0          0         
;490
R009384          7.519      5.55       0          0          0         
;486
R009188          7.911      3.832      0          0          0         
;297
R007011          7.302      5.65       0          0          0         
;221
R006744          6.604      1.99       0          0          0         
;220
R006767          6.078      2.7        0          0          0         
;215
R006769          6.771      2.09       0          0          0         
;205
R006768          6.975      1.238      0          0          0         
;202
R006787          7.862      5.504      0          0          0         
;194
R006776          7.373      5.6        0          0          0         
;190
R006729          8.089      4.01       0          0          0         
;188
R006801          10.171     4.026      0          0          0         
JN_352327        8.759      2.15       0          0          0         
Out_U435         8.8        5          0          0          0         
OUT_U433         5.802      14.198     0          0          0         
intMN-u433       10         10         0          0          0         
;regard avec muret-deversoir pour TP gravitaire vers riv. St-Charles
R341121          7.06       4.5        0          0          0         
R341121_2        7.15       4.5        0          0          0         
SC_PP_u435       8.85       2.74       0          0          0         
PP_U433a         5.801      14.199     0          0          0         
1                0          0          0          0          0         

[OUTFALLS]
;;Name           Elevation  Type       Stage Data       Gated    Route To        
;;-------------- ---------- ---------- ---------------- -------- ----------------
;code corporatif VDQ: RA11602
TPG_U435         6.736      FREE                        NO                       
OUT_U433_F       5.702      FREE                        NO                       
intMN-u433_F     9.9        FREE                        NO                       
;code corporatif VDQ: JN49608
TPP_U435         8.468      FREE                        NO                       

[STORAGE]
;;Name           Elev.    MaxDepth   InitDepth  Shape      Curve Name/Params            N/A      Fevap    Psi      Ksat     IMD     
;;-------------- -------- ---------- ----------- ---------- ---------------------------- -------- --------          -------- --------
PP_U433          2.992    5.1        0.3048     TABULAR    U433                         0        0       
PP_U435          5.258    5          1.016      TABULAR    U435                         0        0       

[CONDUITS]
;;Name           From Node        To Node          Length     Roughness  InOffset   OutOffset  InitFlow   MaxFlow   
;;-------------- ---------------- ---------------- ---------- ---------- ---------- ---------- ---------- ----------
;DOM 56036
10139+386        R006794          R006714          77.742     0.013      8.444      8.27       0          0         
;DOM 9815
1024+9973        R009418          R009380          165.744    0.013      10.077     7.854      0          0         
;DOM 6852
346              R006739          R006741          73.9513276129 0.011      7.343      7.03       0          0         
;DOM 6856
348              R006742          R006744          23.9837308391 0.011      6.835      6.784      0          0         
;DOM 6860
361              R006747          PP_U433          20.3744683935 0.013      5.98       5.951      0          0         
;DOM 6876
368              R006782          R006785          111.400943008 0.013      7.977      7.928      0          0         
;DOM 6861
370              R006768          R006747          33.7334784749 0.013      6.975      6.202      0          0         
;DOM 7075
372              R006334          R006801          123.930933415 0.013      10.193     10.171     0          0         
;DOM 7053
391              R006785          R006737          55.6000715108 0.013      7.908      7.836      0          0         
;DOM 7055
398              R006737          R006787          68.6071651742 0.013      7.812      7.862      0          0         
;DOM 7054
400              R006729          R006782          48.5623394104 0.013      8.123      8.052      0          0         
;DOM 9349 / point de mesure DUB-2 (site #5 selon ESA)
868              R009188          R009392          12.2180579878 0.011      7.911      7.786      0          0         
;DOM 9352
890              R009379          R009380          4.89395433211 0.013      7.626      7.5        0          0         
;DOM 9558 / "point de mesures" DUB-1.B-A
908              R009384          R009873          82.6044635232 0.013      7.519      7.17       0          0         
;DOM 9556
912              R009374          R009188          83.377478264 0.011      10.277     7.947      0          0         
;DOM 9582
941              R009417          R009418          155.112849985 0.013      10.37      10.067     0          0         
;DOM 9578
953              R009411          R009414          10.0359759721 0.013      11.751     11.744     0          0         
;DOM 10070
1029             R009676          R009658          97.9994123666 0.013      9.184      8.965      0          0         
;DOM 10078
1031             R009893          R009894          18.9955987538 0.013      8.734      8.58       0          0         
;DOM 10077
1038             R009892          R009893          55.7511855748 0.013      8.653      8.768      0          0         
;DOM 10064
1057             R009885          R009386          124.266356782 0.013      9.741      9.113      0          0         
;DOM 10085
1058             R009879          R006729          38.129715472 0.013      8.268      8.089      0          0         
;DOM 10324
1107             R341121_2        R009878          15.62751   0.013      7.15       6.899      0          0         
;DOM 11043
1267             R014418          R017469          117.408271506 0.013      12.277     10.845     0          0         
;DOM 11245
1294             R017726          R017733          160.990082791 0.013      11.926     11.681     0          0         
;DOM 11244
1320             R017733          R017731          116.543124049 0.013      11.671     11.491     0          0         
;DOM 11774
1439             R014173          R009404          93.3608128082 0.013      10.845     10.542     0          0         
;DOM 11763
1441             R014118          R014169          75.1189107257 0.013      11.168     11.084     0          0         
;DOM 12004
1506             R017731          R009374          98.0125909666 0.013      11.271     10.282     0          0         
;DOM 12559
1645             R014882          R014418          139.309435651 0.013      13.977     12.277     0          0         
;DOM 12756
1664             R014423          R014616          77.7068378912 0.013      9.098      8.699      0          0         
;DOM 13013
1712             R014868          R014869          86.0709860061 0.013      9.166      8.733      0          0         
;DOM 13021
1722             R014877          R014875          62.2442353912 0.013      9.731      9.462      0          0         
;DOM 13017
1724             R014869          R014421          42.759061658 0.013      8.691      8.561      0          0         
;DOM 56784
395+10292        R006790          R007011          51.143     0.013      7.481      7.302      0          0         
;DOM 55241
4141+892         R009380          R009384          20.301     0.013      7.454      7.539      0          0         
;DOM 56029; SP, 2010-07-20: l'identifiant est faux car il correspond a la cdte de refoulement de U433 de 350 mm
4312             PP_U433a         OUT_U433         19.507     0.013      5.827      5.8        0          0         
;DOM 9345
5401             R017473          RA_9142          78.5085537833 0.013      8.067      7.978      0          0         
;DOM 9345
5423             RA_9142          R009188          16.9296551938 0.011      7.978      7.959      0          0         
;DOM 6850
6173             R006775          R006739          100.920828943 0.011      10.091     7.365      0          0         
;DOM 6854
6178             R006741          R006742          76.2464802853 0.011      7.02       6.845      0          0         
;DOM 6865 / point de mesures DUB-4.A (site #7A selon ESA)
6184             R006769          R006768          120.023349604 0.013      6.771      6.975      0          0         
;DOM 6857
6187             R006744          R006767          76.6531722938 0.013      6.604      6.334      0          0         
;DOM 6869
6199             R006776          R006767          74.6330990298 0.013      7.373      6.178      0          0         
;DOM 6859 / point de mesures DUB-4.B (site #7B selon ESA)
6200             R006746          R006747          12.2844648687 0.013      6.028      6.024      0          0         
;DOM 7061
6204+4336        R006714          R006776          70.69      0.013      8.27       8.053      0          0         
;DOM 7071
6223             R006801          R006337          152.480680804 0.013      10.189     10.094     0          0         
;DOM 7056
6224+4325        R006787          R006790          147.914    0.013      7.862      7.551      0          0         
;DOM 7066
6225             R006337          R006794          116.758561238 0.013      9.114      8.454      0          0         
;DOM 7655
6337             R007011          R006776          27.0200359727 0.013      7.302      7.373      0          0         
;DOM 9350
6704+9953        R009392          R009379          66.857     0.013      7.77       7.626      0          0         
;DOM 9351
6732             R009386          R009380          6.06351465651 0.011      8.053      7.996      0          0         
;DOM 9577
6737             R009414          R014328          120.049152253 0.013      11.709     11.538     0          0         
;DOM 9581
6738             R009404          R009417          32.3251599376 0.013      10.542     10.37      0          0         
;DOM 9835
6809             R093762          R009188          74.9366215947 0.011      8.03       7.911      0          0         
;DOM 10062
6862             R341121          PP_U435          9.45       0.013      7.29       7.079      0          0         
;DOM 10065
6864             R009887          R009885          161.86212541 0.013      10.178     9.771      0          0         
;DOM 10083
6867             R009898          R009879          83.6570085594 0.013      8.302      8.244      0          0         
;DOM 10080
6868             R009658          R009892          128.95005757 0.013      9.029      8.678      0          0         
;DOM 10079
6870             R009894          R009897          98.6650187883 0.013      8.534      8.498      0          0         
;DOM 10082
6876             R009897          R009898          99.4319211517 0.013      8.372      8.302      0          0         
;DOM 11045 / point de mesures DUB-3.B (site #6B selon ESA)
7123             R014411          R017473          73.5912991604 0.013      7.89       8.107      0          0         
;DOM 11248
7159             R017735          R017726          74.1912894213 0.013      12.03      11.931     0          0         
;DOM 11232
7161             R017469          R014411          206.96916013 0.013      10.745     8.22       0          0         
;DOM 11760
7234             R014328          R014118          123.618190362 0.013      11.538     11.213     0          0         
;DOM 11770
7282+9325        R014169          R014173          136.876    0.013      11.069     10.865     0          0         
;DOM 12561
7471             R014864          R014421          67.0505630854 0.013      8.455      8.111      0          0         
;DOM 12767
7474             R093130          R014414          95.5939040291 0.011      8.665      8.381      0          0         
;DOM 12757