[TITLE]
;;Project Title/Notes
Scenario Run :  BASE
This is the ending Arc Map file for Chapter 7 of the InfoSWMM training notes.
It is the same as the ending Arc Map File for Chapter 8. InfoSWMM Training Guide.
:::::::::::::::::::::::::::::::::::::::::::::::::::::::::::::::::::::::::::::::::::::::::::

[OPTIONS]
;;Option             Value
FLOW_UNITS           LPS
INFILTRATION         HORTON
FLOW_ROUTING         DYNWAVE
LINK_OFFSETS         DEPTH
MIN_SLOPE            0
ALLOW_PONDING        YES
SKIP_STEADY_STATE    NO

START_DATE           05/18/2011
START_TIME           00:00:00
REPORT_START_DATE    05/18/2011
REPORT_START_TIME    00:00:00
END_DATE             05/19/2011
END_TIME             06:00:00
SWEEP_START          01/01
SWEEP_END            12/31
DRY_DAYS             5.000000
REPORT_STEP          00:01:00
WET_STEP             00:15:00
DRY_STEP             01:00:00
ROUTING_STEP         0:00:20 
RULE_STEP            00:00:00

INERTIAL_DAMPING     NONE
NORMAL_FLOW_LIMITED  BOTH
FORCE_MAIN_EQUATION  H-W
VARIABLE_STEP        0.75
LENGTHENING_STEP     10
MIN_SURFAREA         1.14
MAX_TRIALS           8
HEAD_TOLERANCE       0.001000
SYS_FLOW_TOL         5
LAT_FLOW_TOL         5
MINIMUM_STEP         0
THREADS              1

[EVAPORATION]
;;Data Source    Parameters
;;-------------- ----------------
CONSTANT         0.0
DRY_ONLY         NO

[RAINGAGES]
;;Name           Format    Interval SCF      Source    
;;-------------- --------- ------ ------ ----------
; New Raingage
RAINGAGE-1       INTENSITY 0.250000 1.000000 TIMESERIES RAINFALL        

[SUBCATCHMENTS]
;;Name           Rain Gage        Outlet           Area     %Imperv  Width    %Slope   CurbLen  SnowPack        
;;-------------- ---------------- ---------------- -------- -------- -------- -------- -------- ----------------
SUB_040          RAINGAGE-1       MH_040           0.804000 25.000000 50.600000 0.008000 0.000000                 
SUB_047          RAINGAGE-1       MH_047           0.154000 70.000000 22.100000 0.008000 0.000000                 
SUB_075          RAINGAGE-1       MH_075           0.870000 85.000000 52.600000 0.007000 0.000000                 
SUB_085          RAINGAGE-1       MH_085           0.232000 80.000000 27.200000 0.001000 0.000000                 
SUB_127          RAINGAGE-1       MH_127           0.135000 17.500000 20.700000 0.011000 0.000000                 
SUB_128          RAINGAGE-1       MH_128           5.277000 2.500000 129.600000 0.008000 0.000000                 
SUB_165          RAINGAGE-1       MH_165           0.318000 50.000000 31.800000 0.017000 0.000000                 
SUB_166          RAINGAGE-1       MH_166           0.123000 90.000000 19.800000 0.008000 0.000000                 
SUB_189          RAINGAGE-1       MH_189           0.263000 75.000000 28.900000 0.009000 0.000000                 
SUB_223          RAINGAGE-1       MH_223           0.225000 45.000000 26.800000 0.016000 0.000000                 
SUB_249          RAINGAGE-1       MH_249           0.258000 35.000000 28.700000 0.009000 0.000000                 
SUB_251          RAINGAGE-1       MH_251           0.169000 44.000000 23.200000 0.008000 0.000000                 
SUB_273          RAINGAGE-1       MH_273           0.175000 12.000000 23.600000 0.001000 0.000000                 
SUB_305          RAINGAGE-1       MH_305           0.059000 68.000000 13.600000 0.006000 0.000000                 
SUB_306          RAINGAGE-1       MH_306           0.056000 28.000000 13.300000 0.001000 0.000000                 
SUB_348          RAINGAGE-1       MH_348           0.209000 28.000000 25.800000 0.007000 0.000000                 

[SUBAREAS]
;;Subcatchment   N-Imperv   N-Perv     S-Imperv   S-Perv     PctZero    RouteTo    PctRouted 
;;-------------- ---------- ---------- ---------- ---------- ---------- ---------- ----------
SUB_040          0.015000   0.030000   5.000000   15.000000  25.000000  OUTLET    
SUB_047          0.015000   0.030000   5.000000   15.000000  25.000000  OUTLET    
SUB_075          0.015000   0.030000   5.000000   15.000000  25.000000  OUTLET    
SUB_085          0.015000   0.030000   5.000000   15.000000  25.000000  OUTLET    
SUB_127          0.015000   0.030000   5.000000   15.000000  25.000000  OUTLET    
SUB_128          0.015000   0.030000   5.000000   15.000000  25.000000  OUTLET    
SUB_165          0.015000   0.030000   5.000000   15.000000  25.000000  OUTLET    
SUB_166          0.015000   0.030000   5.000000   15.000000  25.000000  OUTLET    
SUB_189          0.015000   0.030000   5.000000   15.000000  25.000000  OUTLET    
SUB_223          0.015000   0.030000   5.000000   15.000000  25.000000  OUTLET    
SUB_249          0.015000   0.030000   5.000000   15.000000  25.000000  OUTLET    
SUB_251          0.015000   0.030000   5.000000   15.000000  25.000000  OUTLET    
SUB_273          0.015000   0.030000   5.000000   15.000000  25.000000  OUTLET    
SUB_305          0.015000   0.030000   5.000000   15.000000  25.000000  OUTLET    
SUB_306          0.015000   0.030000   5.000000   15.000000  25.000000  OUTLET    
SUB_348          0.015000   0.030000   5.000000   15.000000  25.000000  OUTLET    

[INFILTRATION]
;;Subcatchment   MaxRate    MinRate    Decay      DryTime    MaxInfil  
;;-------------- ---------- ---------- ---------- ---------- ----------
SUB_040          64.000000  6.400000   0.050000   5.000000   0.000000  
SUB_047          64.000000  6.400000   0.050000   5.000000   0.000000  
SUB_075          64.000000  6.400000   0.050000   5.000000   0.000000  
SUB_085          64.000000  6.400000   0.050000   5.000000   0.000000  
SUB_127          64.000000  6.400000   0.050000   5.000000   0.000000  
SUB_128          64.000000  6.400000   0.050000   5.000000   0.000000  
SUB_165          64.000000  6.400000   0.050000   5.000000   0.000000  
SUB_166          64.000000  6.400000   0.050000   5.000000   0.000000  
SUB_189          64.000000  6.400000   0.050000   5.000000   0.000000  
SUB_223          64.000000  6.400000   0.050000   5.000000   0.000000  
SUB_249          64.000000  6.400000   0.050000   5.000000   0.000000  
SUB_251          64.000000  6.400000   0.050000   5.000000   0.000000  
SUB_273          64.000000  6.400000   0.050000   5.000000   0.000000  
SUB_305          64.000000  6.400000   0.050000   5.000000   0.000000  
SUB_306          64.000000  6.400000   0.050000   5.000000   0.000000  
SUB_348          64.000000  6.400000   0.050000   5.000000   0.000000  

[JUNCTIONS]
;;Name           Elevation  MaxDepth   InitDepth  SurDepth   Aponded   
;;-------------- ---------- ---------- ---------- ---------- ----------
MH_000           13.000000  2.562517   0.000000   0.000000   0.000000  
MH_008           12.770000  2.796057   0.000000   0.000000   0.000000  
MH_009           12.640000  2.113639   0.000000   0.000000   0.000000  
MH_010           12.550000  2.657048   0.000000   0.000000   0.000000  
MH_011           10.190000  2.055773   0.000000   0.000000   0.000000  
MH_012           10.250000  1.997966   0.000000   0.000000   0.000000  
MH_013           21.270000  0.675353   0.000000   0.000000   0.000000  
MH_014           21.140000  1.100656   0.000000   0.000000   0.000000  
MH_015           20.910000  0.336480   0.000000   0.000000   0.000000  
MH_016           20.187905  1.057226   0.000000   0.000000   0.000000  
MH_017           19.458730  2.151151   0.000000   0.000000   0.000000  
MH_018           18.920000  1.647268   0.000000   0.000000   0.000000  
MH_019           18.680000  1.566288   0.000000   0.000000   0.000000  
MH_020           19.920000  1.318990   0.000000   0.000000   0.000000  
MH_021           20.450000  0.753275   0.000000   0.000000   0.000000  
MH_022           17.060000  1.690449   0.000000   0.000000   0.000000  
MH_023           18.840000  1.262059   0.000000   0.000000   0.000000  
MH_024           18.330000  1.361835   0.000000   0.000000   0.000000  
MH_025           19.470000  2.264866   0.000000   0.000000   0.000000  
MH_026           15.240000  1.796115   0.000000   0.000000   0.000000  
MH_027           14.930000  1.843467   0.000000   0.000000   0.000000  
MH_028           14.170000  1.112695   0.000000   0.000000   0.000000  
MH_029           17.430000  0.817317   0.000000   0.000000   0.000000  
MH_030           18.130000  0.616630   0.000000   0.000000   0.000000  
MH_031           16.840000  1.726374   0.000000   0.000000   0.000000  
MH_032           17.780000  1.316047   0.000000   0.000000   0.000000  
MH_033           18.980000  1.645355   0.000000   0.000000   0.000000  
MH_034           19.270000  1.186307   0.000000   0.000000   0.000000  
MH_035           19.300000  1.196037   0.000000   0.000000   0.000000  
MH_036           13.100000  1.650787   0.000000   0.000000   0.000000  
MH_037           16.040000  1.040561   0.000000   0.000000   0.000000  
MH_038           13.170000  1.581893   0.000000   0.000000   0.000000  
MH_039           13.900000  2.442771   0.000000   0.000000   0.000000  
MH_040           12.500000  2.248740   0.000000   0.000000   0.000000  
MH_041           16.640000  1.489614   0.000000   0.000000   0.000000  
MH_042           16.920000  0.824417   0.000000   0.000000   0.000000  
MH_043           17.110000  3.133906   0.000000   0.000000   0.000000  
MH_044           17.760000  2.498391   0.000000   0.000000   0.000000  
MH_045           19.100000  1.211972   0.000000   0.000000   0.000000  
MH_046           12.620000  1.626972   0.000000   0.000000   0.000000  
MH_047           12.220000  2.026972   0.000000   0.000000   0.000000  
MH_048           16.260000  1.381970   0.000000   0.000000   0.000000  
MH_049           16.420000  1.506040   0.000000   0.000000   0.000000  
MH_050           19.600000  1.377596   0.000000   0.000000   0.000000  
MH_051           16.330000  1.915389   0.000000   0.000000   0.000000  
MH_052           16.640000  1.605499   0.000000   0.000000   0.000000  
MH_053           15.850000  2.810349   0.000000   0.000000   0.000000  
MH_054           17.250000  0.497248   0.000000   0.000000   0.000000  
MH_055           17.550000  0.635582   0.000000   0.000000   0.000000  
MH_056           17.820000  0.739192   0.000000   0.000000   0.000000  
MH_057           15.710000  2.036007   0.000000   0.000000   0.000000  
MH_058           15.090000  4.152666   0.000000   0.000000   0.000000  
MH_059           16.200000  2.045770   0.000000   0.000000   0.000000  
MH_060           17.140000  1.105489   0.000000   0.000000   0.000000  
MH_061           17.200000  1.294618   0.000000   0.000000   0.000000  
MH_062           17.000000  1.495264   0.000000   0.000000   0.000000  
MH_063           17.510000  1.235094   0.000000   0.000000   0.000000  
MH_064           18.090000  0.655223   0.000000   0.000000   0.000000  
MH_065           18.290000  1.451288   0.000000   0.000000   0.000000  
MH_066           17.670000  1.425793   0.000000   0.000000   0.000000  
MH_067           14.710000  2.447553   0.000000   0.000000   0.000000  
MH_068           13.850000  2.495789   0.000000   0.000000   0.000000  
MH_069           12.660000  1.689457   0.000000   0.000000   0.000000  
MH_070           13.280000  2.311978   0.000000   0.000000   0.000000  
MH_071           12.240000  1.507563   0.000000   0.000000   0.000000  
MH_072           12.120000  1.626837   0.000000   0.000000   0.000000  
MH_073           12.290000  1.456837   0.000000   0.000000   0.000000  
MH_074           11.680000  1.564975   0.000000   0.000000   0.000000  
MH_075           11.730000  2.016837   0.000000   0.000000   0.000000  
MH_076           15.770000  1.237532   0.000000   0.000000   0.000000  
MH_077           16.320000  1.941561   0.000000   0.000000   0.000000  
MH_078           16.940000  1.739212   0.000000   0.000000   0.000000  
MH_079           16.570000  1.720717   0.000000   0.000000   0.000000  
MH_080           17.070000  1.226534   0.000000   0.000000   0.000000  
MH_081           16.090000  1.150842   0.000000   0.000000   0.000000  
MH_082           11.080000  1.666520   0.000000   0.000000   0.000000  
MH_083           10.980000  1.766520   0.000000   0.000000   0.000000  
MH_084           11.160000  1.617461   0.000000   0.000000   0.000000  
MH_085           10.630000  2.116463   0.000000   0.000000   0.000000  
MH_086           14.890000  1.076138   0.000000   0.000000   0.000000  
MH_087           15.220000  2.525914   0.000000   0.000000   0.000000  
MH_088           15.290000  2.456834   0.000000   0.000000   0.000000  
MH_089           15.960000  1.786131   0.000000   0.000000   0.000000  
MH_090           17.090000  0.405286   0.000000   0.000000   0.000000  
MH_091           16.740000  1.176512   0.000000   0.000000   0.000000  
MH_092           15.400000  0.844151   0.000000   0.000000   0.000000  
MH_093           15.890000  0.383146   0.000000   0.000000   0.000000  
MH_094           16.040000  1.087536   0.000000   0.000000   0.000000  
MH_095           10.810000  1.936064   0.000000   0.000000   0.000000  
MH_096           14.220000  1.108233   0.000000   0.000000   0.000000  
MH_097           16.200000  1.429007   0.000000   0.000000   0.000000  
MH_098           14.670000  2.602414   0.000000   0.000000   0.000000  
MH_099           14.870000  3.021975   0.000000   0.000000   0.000000  
MH_100           14.360000  1.889893   0.000000   0.000000   0.000000  
MH_101           13.640000  1.581645   0.000000   0.000000   0.000000  
MH_102           13.700000  1.513702   0.000000   0.000000   0.000000  
MH_103           13.620000  1.601645   0.000000   0.000000   0.000000  
MH_104           13.190000  2.378345   0.000000   0.000000   0.000000  
MH_105           14.010000  1.512399   0.000000   0.000000   0.000000  
MH_106           12.990000  2.635865   0.000000   0.000000   0.000000  
MH_107           12.600000  0.967694   0.000000   0.000000   0.000000  
MH_108           13.300000  2.413071   0.000000   0.000000   0.000000  
MH_109           14.550000  1.469221   0.000000   0.000000   0.000000  
MH_110           14.140000  2.101052   0.000000   0.000000   0.000000  
MH_111           14.350000  1.849140   0.000000   0.000000   0.000000  
MH_112           11.630000  3.131761   0.000000   0.000000   0.000000  
MH_113           12.160000  3.109626   0.000000   0.000000   0.000000  
MH_114           13.080000  2.254801   0.000000   0.000000   0.000000  
MH_115           13.270000  3.083931   0.000000   0.000000   0.000000  
MH_116           13.470000  2.672037   0.000000   0.000000   0.000000  
MH_117           14.080000  1.775352   0.000000   0.000000   0.000000  
MH_118           12.280000  2.981016   0.000000   0.000000   0.000000  
MH_119           9.720000   1.995714   0.000000   0.000000   0.000000  
MH_120           9.820000   1.895714   0.000000   0.000000   0.000000  
MH_121           10.560000  2.065753   0.000000   0.000000   0.000000  
MH_122           10.560000  1.844587   0.000000   0.000000   0.000000  
MH_123           10.570000  1.836384   0.000000   0.000000   0.000000  
MH_124           10.580000  1.670857   0.000000   0.000000   0.000000  
MH_125           10.590000  1.657577   0.000000   0.000000   0.000000  
MH_126           10.460000  1.787894   0.000000   0.000000   0.000000  
MH_127           9.150000   2.587606   0.000000   0.000000   0.000000  
MH_128           9.980000   2.426384   0.000000   0.000000   0.000000  
MH_129           9.600000   2.646146   0.000000   0.000000   0.000000  
MH_130           10.250000  1.935347   0.000000   0.000000   0.000000  
MH_131           11.980000  2.136943   0.000000   0.000000   0.000000  
MH_132           12.980000  1.068255   0.000000   0.000000   0.000000  
MH_133           13.730000  3.999972   0.000000   0.000000   0.000000  
MH_134           15.510000  0.696735   0.000000   0.000000   0.000000  
MH_135           16.010000  1.004459   0.000000   0.000000   0.000000  
MH_136           16.800000  1.290512   0.000000   0.000000   0.000000  
MH_137           17.180000  0.567383   0.000000   0.000000   0.000000  
MH_138           15.080000  1.974429   0.000000   0.000000   0.000000  
MH_139           16.650000  1.277741   0.000000   0.000000   0.000000  
MH_140           14.230000  1.199586   0.000000   0.000000   0.000000  
MH_141           14.580000  1.017489   0.000000   0.000000   0.000000  
MH_142           14.670000  1.041334   0.000000   0.000000   0.000000  
MH_143           14.790000  0.923926   0.000000   0.000000   0.000000  
MH_144           14.920000  0.834535   0.000000   0.000000   0.000000  
MH_145           15.030000  0.788064   0.000000   0.000000   0.000000  
MH_146           15.170000  0.689750   0.000000   0.000000   0.000000  
MH_147           13.960000  1.449268   0.000000   0.000000   0.000000  
MH_148           13.380000  1.548957   0.000000   0.000000   0.000000  
MH_149           12.880000  1.866224   0.000000   0.000000   0.000000  
MH_150           12.720000  2.828652   0.000000   0.000000   0.000000  
MH_151           13.500000  3.241842   0.000000   0.000000   0.000000  
MH_152           12.890000  2.728655   0.000000   0.000000   0.000000  
MH_153           13.680000  2.217406   0.000000   0.000000   0.000000  
MH_154           14.190000  2.432376   0.000000   0.000000   0.000000  
MH_155           14.590000  2.151842   0.000000   0.000000   0.000000  
MH_156           14.700000  0.958054   0.000000   0.000000   0.000000  
MH_157           11.700000  1.770088   0.000000   0.000000   0.000000  
MH_158           13.870000  2.668679   0.000000   0.000000   0.000000  
MH_159           14.760000  1.961523   0.000000   0.000000   0.000000  
MH_160           14.970000  1.117181   0.000000   0.000000   0.000000  
MH_161           8.940000   1.960663   0.000000   0.000000   0.000000  
MH_162           9.000000   1.900663   0.000000   0.000000   0.000000  
MH_163           8.990000   1.937476   0.000000   0.000000   0.000000  
MH_164           9.340000   1.856074   0.000000   0.000000   0.000000  
MH_165           8.330000   2.570663   0.000000   0.000000   0.000000  
MH_166           8.795000   2.447795   0.000000   0.000000   0.000000  
MH_167           10.690000  1.185340   0.000000   0.000000   0.000000  
MH_168           13.030000  1.204357   0.000000   0.000000   0.000000  
MH_169           15.420000  1.164914   0.000000   0.000000   0.000000  
MH_170           16.540000  1.565158   0.000000   0.000000   0.000000  
MH_171           17.010000  1.114737   0.000000   0.000000   0.000000  
MH_172           15.050000  2.618882   0.000000   0.000000   0.000000  
MH_173           15.650000  1.396011   0.000000   0.000000   0.000000  
MH_174           16.350000  0.696011   0.000000   0.000000   0.000000  
MH_175           13.830000  2.863958   0.000000   0.000000   0.000000  
MH_176           13.030000  1.456902   0.000000   0.000000   0.000000  
MH_177           11.830000  1.558623   0.000000   0.000000   0.000000  
MH_178           12.380000  2.304904   0.000000   0.000000   0.000000  
MH_179           13.760000  0.987050   0.000000   0.000000   0.000000  
MH_180           8.400000   1.615934   0.000000   0.000000   0.000000  
MH_181           9.650000   1.079880   0.000000   0.000000   0.000000  
MH_182           9.400000   1.268849   0.000000   0.000000   0.000000  
MH_183           9.000000   1.261302   0.000000   0.000000   0.000000  
MH_184           7.740000   1.524676   0.000000   0.000000   0.000000  
MH_185           8.210000   1.160898   0.000000   0.000000   0.000000  
MH_186           10.390000  1.361336   0.000000   0.000000   0.000000  
MH_187           7.940000   1.298188   0.000000   0.000000   0.000000  
MH_188           8.030000   1.208188   0.000000   0.000000   0.000000  
MH_189           7.450000   1.788188   0.000000   0.000000   0.000000  
MH_190           12.270000  1.342074   0.000000   0.000000   0.000000  
MH_191           13.750000  0.832933   0.000000   0.000000   0.000000  
MH_192           13.750000  0.982880   0.000000   0.000000   0.000000  
MH_193           11.190000  1.062170   0.000000   0.000000   0.000000  
MH_194           14.910000  0.834661   0.000000   0.000000   0.000000  
MH_195           14.440000  4.091136   0.000000   0.000000   0.000000  
MH_196           16.840000  0.909799   0.000000   0.000000   0.000000  
MH_197           14.670000  3.575109   0.000000   0.000000   0.000000  
MH_198           15.930000  0.944213   0.000000   0.000000   0.000000  
MH_199           16.400000  1.197096   0.000000   0.000000   0.000000  
MH_200           16.380000  1.855810   0.000000   0.000000   0.000000  
MH_201           16.530000  1.295943   0.000000   0.000000   0.000000  
MH_202           16.650000  1.293878   0.000000   0.000000   0.000000  
MH_203           14.140000  3.505335   0.000000   0.000000   0.000000  
MH_204           15.800000  1.946185   0.000000   0.000000   0.000000  
MH_205           15.130000  1.904273   0.000000   0.000000   0.000000  
MH_206           13.470000  2.225283   0.000000   0.000000   0.000000  
MH_207           14.810000  1.289317   0.000000   0.000000   0.000000  
MH_208           11.400000  1.355365   0.000000   0.000000   0.000000  
MH_209           10.790000  1.538781   0.000000   0.000000   0.000000  
MH_210           10.740000  2.005884   0.000000   0.000000   0.000000  
MH_211           13.130000  1.131675   0.000000   0.000000   0.000000  
MH_212           13.700000  0.838516   0.000000   0.000000   0.000000  
MH_213           8.080000   3.166116   0.000000   0.000000   0.000000  
MH_214           12.500000  1.382861   0.000000   0.000000   0.000000  
MH_215           12.900000  0.982861   0.000000   0.000000   0.000000  
MH_216           11.640000  1.220599   0.000000   0.000000   0.000000  
MH_217           11.420000  1.156516   0.000000   0.000000   0.000000  
MH_218           6.950000   1.426031   0.000000   0.000000   0.000000  
MH_219           6.830000   1.806712   0.000000   0.000000   0.000000  
MH_220           6.990000   1.659989   0.000000   0.000000   0.000000  
MH_221           7.240000   1.471082   0.000000   0.000000   0.000000  
MH_222           7.500000   1.747770   0.000000   0.000000   0.000000  
MH_223           6.210000   2.426712   0.000000   0.000000   0.000000  
MH_224           13.570000  1.321036   0.000000   0.000000   0.000000  
MH_225           15.560000  2.192652   0.000000   0.000000   0.000000  
MH_226           15.870000  2.858087   0.000000   0.000000   0.000000  
MH_227           15.940000  2.342208   0.000000   0.000000   0.000000  
MH_228           16.060000  2.037986   0.000000   0.000000   0.000000  
MH_229           15.400000  1.730045   0.000000   0.000000   0.000000  
MH_230           13.610000  3.016198   0.000000   0.000000   0.000000  
MH_231           12.390000  3.371376   0.000000   0.000000   0.000000  
MH_232           12.010000  2.756694   0.000000   0.000000   0.000000  
MH_233           14.710000  1.799046   0.000000   0.000000   0.000000  
MH_234           14.270000  2.452019   0.000000   0.000000   0.000000  
MH_235           11.890000  3.317543   0.000000   0.000000   0.000000  
MH_236           11.570000  2.938225   0.000000   0.000000   0.000000  
MH_237           12.890000  1.579289   0.000000   0.000000   0.000000  
MH_238           12.540000  1.830272   0.000000   0.000000   0.000000  
MH_239           10.360000  1.732397   0.000000   0.000000   0.000000  
MH_240           8.800000   4.341826   0.000000   0.000000   0.000000  
MH_241           9.070000   4.169785   0.000000   0.000000   0.000000  
MH_242           9.330000   2.755566   0.000000   0.000000   0.000000  
MH_243           9.650000   2.123874   0.000000   0.000000   0.000000  
MH_244           7.550000   1.994478   0.000000   0.000000   0.000000  
MH_245           5.300000   1.445161   0.000000   0.000000   0.000000  
MH_246           6.290000   1.460775   0.000000   0.000000   0.000000  
MH_247           5.860000   1.881768   0.000000   0.000000   0.000000  
MH_248           4.820000   1.884261   0.000000   0.000000   0.000000  
MH_249           4.920000   1.820286   0.000000   0.000000   0.000000  
MH_250           4.840000   1.864261   0.000000   0.000000   0.000000  
MH_251           5.490000   2.261803   0.000000   0.000000   0.000000  
MH_252           12.250000  1.426340   0.000000   0.000000   0.000000  
MH_253           17.200000  1.294264   0.000000   0.000000   0.000000  
MH_254           14.400000  2.844918   0.000000   0.000000   0.000000  
MH_255           14.340000  2.902294   0.000000   0.000000   0.000000  
MH_256           14.960000  3.277916   0.000000   0.000000   0.000000  
MH_257           15.130000  2.992207   0.000000   0.000000   0.000000  
MH_258           13.190000  1.090819   0.000000   0.000000   0.000000  
MH_259           14.020000  3.056477   0.000000   0.000000   0.000000  
MH_260           11.200000  3.056261   0.000000   0.000000   0.000000  
MH_261           11.390000  3.215388   0.000000   0.000000   0.000000  
MH_262           12.030000  2.241560   0.000000   0.000000   0.000000  
MH_263           13.560000  1.512117   0.000000   0.000000   0.000000  
MH_264           10.040000  2.209618   0.000000   0.000000   0.000000  
MH_265           9.380000   2.594648   0.000000   0.000000   0.000000  
MH_266           8.670000   2.080300   0.000000   0.000000   0.000000  
MH_267           8.150000   1.890436   0.000000   0.000000   0.000000  
MH_268           5.120000   1.625228   0.000000   0.000000   0.000000  
MH_269           5.270000   1.475228   0.000000   0.000000   0.000000  
MH_270           5.460000   1.244261   0.000000   0.000000   0.000000  
MH_271           4.610000   1.642096   0.000000   0.000000   0.000000  
MH_272           4.730000   1.522096   0.000000   0.000000   0.000000  
MH_273           4.250000   2.003527   0.000000   0.000000   0.000000  
MH_274           4.280000   1.970202   0.000000   0.000000   0.000000  
MH_275           4.540000   2.204675   0.000000   0.000000   0.000000  
MH_276           10.730000  0.999533   0.000000   0.000000   0.000000  
MH_277           16.310000  2.185264   0.000000   0.000000   0.000000  
MH_278           14.780000  2.746167   0.000000   0.000000   0.000000  
MH_279           15.400000  1.777883   0.000000   0.000000   0.000000  
MH_280           14.940000  2.749486   0.000000   0.000000   0.000000  
MH_281           15.540000  2.501944   0.000000   0.000000   0.000000  
MH_282           15.660000  2.443488   0.000000   0.000000   0.000000  
MH_283           15.240000  1.277210   0.000000   0.000000   0.000000  
MH_284           14.890000  2.696349   0.000000   0.000000   0.000000  
MH_285           13.950000  2.718763   0.000000   0.000000   0.000000  
MH_286           13.810000  3.237127   0.000000   0.000000   0.000000  
MH_287           15.340000  1.289679   0.000000   0.000000   0.000000  
MH_288           14.930000  1.548402   0.000000   0.000000   0.000000  
MH_289           14.190000  1.506443   0.000000   0.000000   0.000000  
MH_290           14.340000  1.455058   0.000000   0.000000   0.000000  
MH_291           14.480000  1.421588   0.000000   0.000000   0.000000  
MH_292           14.440000  1.495760   0.000000   0.000000   0.000000  
MH_293           14.550000  1.555655   0.000000   0.000000   0.000000  
MH_294           14.640000  1.457579   0.000000   0.000000   0.000000  
MH_295           14.080000  1.522693   0.000000   0.000000   0.000000  
MH_296           14.170000  1.442342   0.000000   0.000000   0.000000  
MH_297           13.110000  2.263924   0.000000   0.000000   0.000000  
MH_298           13.350000  2.148257   0.000000   0.000000   0.000000  
MH_299           13.340000  2.156555   0.000000   0.000000   0.000000  
MH_300           13.540000  1.956461   0.000000   0.000000   0.000000  
MH_301           12.360000  2.785123   0.000000   0.000000   0.000000  
MH_302           13.660000  1.838395   0.000000   0.000000   0.000000  
MH_303           10.510000  1.706280   0.000000   0.000000   0.000000  
MH_304           4.260000   1.488812   0.000000   0.000000   0.000000  
MH_305           3.990000   2.266347   0.000000   0.000000   0.000000  
MH_306           4.150000   2.508734   0.000000   0.000000   0.000000  
MH_307           4.400000   0.853933   0.000000   0.000000   0.000000  
MH_308           4.150000   1.114237   0.000000   0.000000   0.000000  
MH_309           5.340000   1.486881   0.000000   0.000000   0.000000  
MH_310           3.270000   1.979848   0.000000   0.000000   0.000000  
MH_311           3.600000   2.148224   0.000000   0.000000   0.000000  
MH_312           3.600000   2.147261   0.000000   0.000000   0.000000  
MH_313           13.590000  1.040400   0.000000   0.000000   0.000000  
MH_314           10.820000  1.067077   0.000000   0.000000   0.000000  
MH_315           7.010000   0.611677   0.000000   0.000000   0.000000  
MH_316           5.850000   1.765902   0.000000   0.000000   0.000000  
MH_317           5.420000   1.286899   0.000000   0.000000   0.000000  
MH_318           4.640000   1.154111   0.000000   0.000000   0.000000  
MH_319           5.330000   1.375567   0.000000   0.000000   0.000000  
MH_320           6.060000   1.254655   0.000000   0.000000   0.000000  
MH_321           6.370000   0.944549   0.000000   0.000000   0.000000  
MH_322           5.080000   1.621183   0.000000   0.000000   0.000000  
MH_323           3.400000   1.850648   0.000000   0.000000   0.000000  
MH_325           16.950000  1.542991   0.000000   0.000000   0.000000  