[TITLE]
;;Project Title/Notes

[OPTIONS]
;;Option             Value
FLOW_UNITS           CMS
INFILTRATION         CURVE_NUMBER
FLOW_ROUTING         DYNWAVE
LINK_OFFSETS         ELEVATION
MIN_SLOPE            0
ALLOW_PONDING        NO
SKIP_STEADY_STATE    NO

START_DATE           11/19/2009
START_TIME           00:05:00
REPORT_START_DATE    11/19/2009
REPORT_START_TIME    00:05:00
END_DATE             11/19/2009
END_TIME             23:55:00
SWEEP_START          01/01
SWEEP_END            12/31
DRY_DAYS             0
REPORT_STEP          00:05:00
WET_STEP             00:05:00
DRY_STEP             00:05:00
ROUTING_STEP         0:01:00 
RULE_STEP            00:00:00

INERTIAL_DAMPING     PARTIAL
NORMAL_FLOW_LIMITED  BOTH
FORCE_MAIN_EQUATION  H-W
VARIABLE_STEP        0.75
LENGTHENING_STEP     0
MIN_SURFAREA         0
MAX_TRIALS           0
HEAD_TOLERANCE       0
SYS_FLOW_TOL         5
LAT_FLOW_TOL         5
MINIMUM_STEP         0.5
THREADS              1

[EVAPORATION]
;;Data Source    Parameters
;;-------------- ----------------
CONSTANT         0.0
DRY_ONLY         NO

[RAINGAGES]
;;Name           Format    Interval SCF      Source    
;;-------------- --------- ------ ------ ----------
Gage1            VOLUME    00:05    1.0      TIMESERIES 19Nov09         

[SUBCATCHMENTS]
;;Name           Rain Gage        Outlet           Area     %Imperv  Width    %Slope   CurbLen  SnowPack        
;;-------------- ---------------- ---------------- -------- -------- -------- -------- -------- ----------------
1                Gage1            Out1             140.72   55.2663  2886     3.99     0                        
2                Gage1            J1               26.48    57.6567  443      4.64     0                        
3                Gage1            J2               44.32    54.6402  637      4.21     0                        
4                Gage1            J3               20.68    44.8019  2        7.49     0                        
5                Gage1            J4               80.44    11.3738  1884     14.05    0                        
6                Gage1            J5               16.76    74.7014  1        4.85     0                        
7                Gage1            J6               19.44    58.4356  842      6.53     0                        
8                Gage1            J7               3.92     65.7304  1        6.02     0                        
9                Gage1            J8               35.84    61.4759  313      3.66     0                        
10               Gage1            J9               28.92    57.1868  483      6.83     0                        
11               Gage1            J10              22.28    60.1724  212      6.11     0                        
12               Gage1            J11              22.92    12.5637  114      13.80    0                        
13               Gage1            J12              46.28    34.4178  382      10.87    0                        
14               Gage1            J13              37.8     6.2633   736      23.07    0                        
15               Gage1            J14              142.92   22.5886  3942     10.25    0                        

[SUBAREAS]
;;Subcatchment   N-Imperv   N-Perv     S-Imperv   S-Perv     PctZero    RouteTo    PctRouted 
;;-------------- ---------- ---------- ---------- ---------- ---------- ---------- ----------
1                0.011      0.120      0          0          29         OUTLET    
2                0.012      0.125      0          0          23         OUTLET    
3                0.011      0.073      0          0          11         OUTLET    
4                0.011      0.154      0          0          36         OUTLET    
5                0.011      0.521      0          0          87         OUTLET    
6                0.011      0.068      0          0          8          OUTLET    
7                0.011      0.194      0          0          31         OUTLET    
8                0.011      0.101      0          0          21         OUTLET    
9                0.011      0.094      0          0          19         OUTLET    
10               0.011      0.202      0          0          31         OUTLET    
11               0.011      0.107      0          0          25         OUTLET    
12               0.011      0.502      0          0          83         OUTLET    
13               0.011      0.329      0          0          59         OUTLET    
14               0.011      0.530      0          0          81         OUTLET    
15               0.011      0.468      0          0          69         OUTLET    

[INFILTRATION]
;;Subcatchment   Param1     Param2     Param3     Param4     Param5    
;;-------------- ---------- ---------- ---------- ---------- ----------
1                81.79      0.5        4          7          0         
2                85.66      0.5        4          7          0         
3                84.56      0.5        4          7          0         
4                82.41      0.5        4          7          0         
5                74.71      0.5        4          7          0         
6                81.58      0.5        4          7          0         
7                82.11      0.5        4          7          0         
8                81         0.5        4          7          0         
9                81         0.5        4          7          0         
10               80.36      0.5        4          7          0         
11               81         0.5        4          7          0         
12               73.44      0.5        4          7          0         
13               77.58      0.5        4          7          0         
14               76.25      0.5        4          7          0         
15               76.06      0.5        4          7          0         

[JUNCTIONS]
;;Name           Elevation  MaxDepth   InitDepth  SurDepth   Aponded   
;;-------------- ---------- ---------- ---------- ---------- ----------
J1               6.82       0          0          0          0         
J2               7.695      0          0          0          0         
J3               26.32      0          0          0          0         
J4               10.40      0          0          0          0         
J5               12.945     0          0          0          0         
J6               12.94      0          0          0          0         
J7               16.58      0          0          0          0         
J8               15.36      0          0          0          0         
J9               16.60      0          0          0          0         
J10              16.605     0          0          0          0         
J11              15.375     0          0          0          0         
J12              16.88      0          0          0          0         
J13              20.61      0          0          0          0         
J14              13.97      0          0          0          0         
J15              9.50       0          0          0          0         
J16              12.11      0          0          0          0         
J17              47.34      0          0          0          0         
J18              24.82      0          0          0          0         
J19              19.13      0          0          0          0         
J20              41.25      0          0          0          0         
J21              31.47      0          0          0          0         
J23              35.36      0          0          0          0         
J24              75.93      0          0          0          0         
J25              32.69      0          0          0          0         
J26              26.67      0          0          0          0         
J27              30.27      0          0          0          0         
J28              29.05      0          0          0          0         
J29              6.81       0          0          0          0         
J30              7.69       0          0          0          0         
J31              10.06      0          0          0          0         
J32              10.39      0          0          0          0         
J33              15.34      0          0          0          0         
J34              15.34      0          0          0          0         
J35              16.59      0          0          0          0         
J38              11.44      0          0          0          0         
J39              11.06      0          0          0          0         
J40              20.27      0          0          0          0         
J41              32.40      0          0          0          0         
J42              22.94      0          0          0          0         
J43              38         0          0          0          0         

[OUTFALLS]
;;Name           Elevation  Type       Stage Data       Gated    Route To        
;;-------------- ---------- ---------- ---------------- -------- ----------------
Out1             5.888      FREE                        NO                       

[CONDUITS]
;;Name           From Node        To Node          Length     Roughness  InOffset   OutOffset  InitFlow   MaxFlow   
;;-------------- ---------------- ---------------- ---------- ---------- ---------- ---------- ---------- ----------
C1               J29              Out1             260        0.013      6.81       5.888      0          0         
C2               J1               J29              1          0.013      6.82       6.81       0          0         
C3               J30              J29              210        0.013      7.69       6.81       0          0         
C4               J2               J30              1          0.013      7.695      7.69       0          0         
C5               J15              J30              610        0.013      9.50       7.69       0          0         
C6               J31              J15              183        0.013      10.06      9.50       0          0         
C7               J32              J31              108        0.013      10.39      10.06      0          0         
C8               J3               J31              600        0.013      26.32      10.06      0          0         
C9               J4               J32              1          0.013      10.40      10.39      0          0         
C11              J5               J6               1          0.013      12.945     12.94      0          0         
C12              J33              J5               420        0.013      15.34      12.945     0          0         
C13              J7               J33              150        0.013      16.58      15.34      0          0         
C14              J8               J33              1          0.013      15.36      15.34      0          0         
C16              J9               J7               1          0.013      16.60      16.58      0          0         
C17              J13              J12              175        0.03       20.61      16.88      0          0         
C18              J11              J34              1          0.03       15.375     15.34      0          0         
C19              J12              J34              133        0.013      16.88      15.34      0          0         
C20              J34              J6               460        0.013      15.34      12.94      0          0         
C22              J35              J16              180        0.03       16.59      12.11      0          0         
C23              J16              J1               469        0.013      12.11      6.82       0          0         
C25              J18              J14              682        0.013      24.82      13.97      0          0         
C26              J19              J4               690        0.013      19.13      10.40      0          0         
C28              J21              J11              429        0.03       31.47      15.375     0          0         
C30              J23              J13              660        0.03       35.36      20.61      0          0         
C31              J24              J23              230        0.03       75.93      35.36      0          0         
C33              J26              J9               610        0.013      26.67      16.60      0          0         
C35              J28              J8               640        0.013      29.05      15.36      0          0         
C10              J38              J32              340        0.013      11.44      10.39      0          0         
C38              J6               J38              300        0.013      12.94      11.44      0          0         
C21              J39              J2               529        0.013      11.06      7.695      0          0         
C39              J14              J39              330        0.013      13.97      11.06      0          0         
C24              J40              J14              330        0.013      20.27      13.97      0          0         
C41              J17              J40              680        0.03       47.34      20.27      0          0         
C27              J41              J19              820        0.013      32.40      19.13      0          0         
C42              J20              J41              400        0.03       41.25      32.40      0          0         
C32              J42              J12              600        0.013      22.94      16.88      0          0         
C43              J25              J42              400        0.013      32.69      22.94      0          0         
C34              J27              J10              560        0.013      36.9       16.605     0          0         
C15              J10              J7               1          0.013      16.605     16.58      0          0         
C45              J43              J18              800        0.013      38         24.82      0          0         

[XSECTIONS]
;;Link           Shape        Geom1            Geom2      Geom3      Geom4      Barrels    Culvert   
;;-------------- ------------ ---------------- ---------- ---------- ---------- ---------- ----------
C1               TRAPEZOIDAL  2                6          1          1          1                    
C2               RECT_OPEN    1                2          0          0          1                    
C3               TRAPEZOIDAL  2                4.5        1          1          1                    
C4               RECT_OPEN    1.5              3.5        0          0          1                    
C5               TRAPEZOIDAL  2                3.5        1          1          1                    
C6               RECT_OPEN    2                7.5        0          0          1                    
C7               RECT_OPEN    2                7.5        0          0          1                    
C8               RECT_OPEN    1.5              2          0          0          1                    
C9               RECT_OPEN    1.5              2          0          0          1                    
C11              RECT_OPEN    0.5              2.7        0          0          1                    
C12              RECT_OPEN    0.5              2.7        0          0          1                    
C13              RECT_OPEN    0.5              2.7        0          0          1                    
C14              RECT_OPEN    0.5              0.5        0          0          1                    
C16              RECT_OPEN    0.5              1.5        0          0          1                    
C17              RECT_OPEN    0.5              2          0          0          1                    
C18              TRAPEZOIDAL  0.5              0.5        1          1          1                    
C19              TRIANGULAR   0.5              2          0          0          1                    
C20              RECT_OPEN    2                4.2        0          0          1                    
C22              TRIANGULAR   1                1.33       0          0          1                    
C23              RECT_OPEN    1                2          0          0          1                    
C25              RECT_OPEN    1.5              1.5        0          0          1                    
C26              RECT_OPEN    1.5              2          0          0          1                    
C28              TRAPEZOIDAL  0.5              0.5        1          1          1                    
C30              RECT_OPEN    0.5              2          0          0          1                    
C31              TRIANGULAR   0.5              0.66       0          0          1                    
C33              RECT_OPEN    0.5              1.5        0          0          1                    
C35              RECT_OPEN    0.5              0.5        0          0          1                    
C10              RECT_OPEN    2                7.5        0          0          1                    
C38              RECT_OPEN    2                4.8        0          0          1                    
C21              RECT_OPEN    1.5              3.5        0          0          1                    
C39              RECT_OPEN    0.5              1.5        0          0          1                    
C24              TRIANGULAR   0.5              2          0          0          1                    
C41              TRIANGULAR   0.5              0.66       0          0          1                    
C27              TRIANGULAR   0.5              2          0          0          1                    
C42              TRIANGULAR   0.5              0.66       0          0          1                    
C32              TRIANGULAR   0.5              2          0          0          1                    
C43              TRIANGULAR   0.5              2          0          0          1                    
C34              RECT_OPEN    1                0.5        0          0          1                    
C15              RECT_OPEN    1                0.5        0          0          1                    
C45              RECT_OPEN    0.5              2.5        0          0          1                    

[TIMESERIES]
;;Name           Date       Time       Value     
;;-------------- ---------- ---------- ----------
3apr88_Int_6min  4/03/1988  00:03:00   0.000000  
3apr88_Int_6min  4/03/1988  00:09:00   0.000000  
3apr88_Int_6min  4/03/1988  00:15:00   0.580850  
3apr88_Int_6min  4/03/1988  00:21:00   0.580850  
3apr88_Int_6min  4/03/1988  00:27:00   0.580850  
3apr88_Int_6min  4/03/1988  00:33:00   0.580850  
3apr88_Int_6min  4/03/1988  00:39:00   10.565950 
3apr88_Int_6min  4/03/1988  00:45:00   19.555300 
3apr88_Int_6min  4/03/1988  00:51:00   1.548930  
3apr88_Int_6min  4/03/1988  00:57:00   0.580850  
3apr88_Int_6min  4/03/1988  01:03:00   0.580850  
3apr88_Int_6min  4/03/1988  01:09:00   9.985100  
3apr88_Int_6min  4/03/1988  01:15:00   30.038270 
3apr88_Int_6min  4/03/1988  01:21:00   55.070170 
3apr88_Int_6min  4/03/1988  01:27:00   49.980810 
3apr88_Int_6min  4/03/1988  01:33:00   62.538250 
3apr88_Int_6min  4/03/1988  01:39:00   92.493540 
3apr88_Int_6min  4/03/1988  01:45:00   58.997820 
3apr88_Int_6min  4/03/1988  01:51:00   27.604230 
3apr88_Int_6min  4/03/1988  01:57:00   5.089360  
3apr88_Int_6min  4/03/1988  02:03:00   6.057440  
3apr88_Int_6min  4/03/1988  02:09:00   1.548930  
3apr88_Int_6min  4/03/1988  02:15:00   1.051060  
3apr88_Int_6min  4/03/1988  02:21:00   0.608510  
3apr88_Int_6min  4/03/1988  02:27:00   1.023400  
3apr88_Int_6min  4/03/1988  02:33:00   1.023400  
3apr88_Int_6min  4/03/1988  02:39:00   1.576590  
3apr88_Int_6min  4/03/1988  02:45:00   1.576590  
3apr88_Int_6min  4/03/1988  02:51:00   0.995740  
3apr88_Int_6min  4/03/1988  02:57:00   0.995740  
3apr88_Int_6min  4/03/1988  03:03:00   1.576590  
3apr88_Int_6min  4/03/1988  03:09:00   0.000000  
3apr88_Int_6min  4/03/1988  03:15:00   0.000000  
3apr88_Int_6min  4/03/1988  03:21:00   0.000000  
3apr88_Int_6min  4/03/1988  03:27:00   0.000000  
3apr88_Int_6min  4/03/1988  03:33:00   0.000000  
3apr88_Int_6min  4/03/1988  03:39:00   0.000000  
3apr88_Int_6min  4/03/1988  03:45:00   0.000000  
3apr88_Int_6min  4/03/1988  03:51:00   0.000000  
3apr88_Int_6min  4/03/1988  03:57:00   0.000000  
3apr88_Int_6min  4/03/1988  04:03:00   0.000000  
3apr88_Int_6min  4/03/1988  04:09:00   0.000000  
3apr88_Int_6min  4/03/1988  04:15:00   0.000000  
3apr88_Int_6min  4/03/1988  04:21:00   0.000000  
3apr88_Int_6min  4/03/1988  04:27:00   0.000000  
3apr88_Int_6min  4/03/1988  04:33:00   0.000000  
3apr88_Int_6min  4/03/1988  04:39:00   0.000000  
3apr88_Int_6min  4/03/1988  04:45:00   0.000000  
3apr88_Int_6min  4/03/1988  04:51:00   0.000000  
3apr88_Int_6min  4/03/1988  04:57:00   0.000000  
3apr88_Int_6min  4/03/1988  05:03:00   0.000000  
3apr88_Int_6min  4/03/1988  05:09:00   0.000000  
3apr88_Int_6min  4/03/1988  05:15:00   0.000000  
3apr88_Int_6min  4/03/1988  05:21:00   0.000000  
3apr88_Int_6min  4/03/1988  05:27:00   0.000000  
3apr88_Int_6min  4/03/1988  05:33:00   0.000000  
3apr88_Int_6min  4/03/1988  05:39:00   0.000000  
3apr88_Int_6min  4/03/1988  05:45:00   0.000000  
3apr88_Int_6min  4/03/1988  05:51:00   0.000000  
3apr88_Int_6min  4/03/1988  05:57:00   0.000000  
;
11jul88_Int_6min 7/11/1988  00:03:00   0.000000  
11jul88_Int_6min 7/11/1988  00:09:00   0.000000  
11jul88_Int_6min 7/11/1988  00:15:00   0.000000  
11jul88_Int_6min 7/11/1988  00:21:00   0.000000  
11jul88_Int_6min 7/11/1988  00:27:00   12.482080 
11jul88_Int_6min 7/11/1988  00:33:00   0.000000  
11jul88_Int_6min 7/11/1988  00:39:00   0.000000  
11jul88_Int_6min 7/11/1988  00:45:00   0.000000  
11jul88_Int_6min 7/11/1988  00:51:00   0.000000  
11jul88_Int_6min 7/11/1988  00:57:00   0.000000  
11jul88_Int_6min 7/11/1988  01:03:00   5.418040  
11jul88_Int_6min 7/11/1988  01:09:00   9.464430  
11jul88_Int_6min 7/11/1988  01:15:00   21.432140 
11jul88_Int_6min 7/11/1988  01:21:00   14.436690 
11jul88_Int_6min 7/11/1988  01:27:00   13.956610 
11jul88_Int_6min 7/11/1988  01:33:00   27.501720 
11jul88_Int_6min 7/11/1988  01:39:00   1.474530  
11jul88_Int_6min 7/11/1988  01:45:00   9.018640  
11jul88_Int_6min 7/11/1988  01:51:00   20.060480 
11jul88_Int_6min 7/11/1988  01:57:00   46.464870 
11jul88_Int_6min 7/11/1988  02:03:00   66.491060 
11jul88_Int_6min 7/11/1988  02:09:00   34.942960 
11jul88_Int_6min 7/11/1988  02:15:00   60.009990 
11jul88_Int_6min 7/11/1988  02:21:00   32.439680 
11jul88_Int_6min 7/11/1988  02:27:00   23.969700 
11jul88_Int_6min 7/11/1988  02:33:00   9.978800  
11jul88_Int_6min 7/11/1988  02:39:00   14.985350 
11jul88_Int_6min 7/11/1988  02:45:00   15.945510 
11jul88_Int_6min 7/11/1988  02:51:00   14.402400 
11jul88_Int_6min 7/11/1988  02:57:00   7.406950  
11jul88_Int_6min 7/11/1988  03:03:00   2.983350  
11jul88_Int_6min 7/11/1988  03:09:00   0.000000  
11jul88_Int_6min 7/11/1988  03:15:00   0.000000  
11jul88_Int_6min 7/11/1988  03:21:00   0.000000  
11jul88_Int_6min 7/11/1988  03:27:00   0.000000  
11jul88_Int_6min 7/11/1988  03:33:00   0.000000  
11jul88_Int_6min 7/11/1988  03:39:00   0.000000  
11jul88_Int_6min 7/11/1988  03:45:00   0.000000  
11jul88_Int_6min 7/11/1988  03:51:00   0.000000  
11jul88_Int_6min 7/11/1988  03:57:00   0.000000  
11jul88_Int_6min 7/11/1988  04:03:00   0.000000  
11jul88_Int_6min 7/11/1988  04:09:00   0.000000  
11jul88_Int_6min 7/11/1988  04:15:00   0.000000  
11jul88_Int_6min 7/11/1988  04:21:00   0.000000  
11jul88_Int_6min 7/11/1988  04:27:00   0.000000  
11jul88_Int_6min 7/11/1988  04:33:00   0.000000  
11jul88_Int_6min 7/11/1988  04:39:00   0.000000  
11jul88_Int_6min 7/11/1988  04:45:00   0.000000  
11jul88_Int_6min 7/11/1988  04:51:00   0.000000  
11jul88_Int_6min 7/11/1988  04:57:00   0.000000  
11jul88_Int_6min 7/11/1988  05:03:00   0.000000  
11jul88_Int_6min 7/11/1988  05:09:00   0.000000  
11jul88_Int_6min 7/11/1988  05:15:00   0.000000  
11jul88_Int_6min 7/11/1988  05:21:00   0.000000  
11jul88_Int_6min 7/11/1988  05:27:00   0.000000  
11jul88_Int_6min 7/11/1988  05:33:00   0.000000  
11jul88_Int_6min 7/11/1988  05:39:00   0.000000  
11jul88_Int_6min 7/11/1988  05:45:00   0.000000  
11jul88_Int_6min 7/11/1988  05:51:00   0.000000  
11jul88_Int_6min 7/11/1988  05:57:00   0.000000  
;
15feb88_Int_6min 02/15/1988 00:03:00   0.000000  
15feb88_Int_6min 02/15/1988 00:09:00   0.000000  
15feb88_Int_6min 02/15/1988 00:15:00   0.000000  
15feb88_Int_6min 02/15/1988 00:21:00   0.000000  
15feb88_Int_6min 02/15/1988 00:27:00   0.000000  
15feb88_Int_6min 02/15/1988 00:33:00   0.000000  
15feb88_Int_6min 02/15/1988 00:39:00   0.000000  
15feb88_Int_6min 02/15/1988 00:45:00   5.018980  
15feb88_Int_6min 02/15/1988 00:51:00   12.495180 
15feb88_Int_6min 02/15/1988 00:57:00   77.585130 
15feb88_Int_6min 02/15/1988 01:03:00   122.703700
15feb88_Int_6min 02/15/1988 01:09:00   125.160910
15feb88_Int_6min 02/15/1988 01:15:00   100.170550
15feb88_Int_6min 02/15/1988 01:21:00   62.580460 
15feb88_Int_6min 02/15/1988 01:27:00   32.675680 
15feb88_Int_6min 02/15/1988 01:33:00   15.056950 
15feb88_Int_6min 02/15/1988 01:39:00   10.090250 
15feb88_Int_6min 02/15/1988 01:45:00   15.056950 
15feb88_Int_6min 02/15/1988 01:51:00   17.514160 
15feb88_Int_6min 02/15/1988 01:57:00   20.023650 
15feb88_Int_6min 02/15/1988 02:03:00   30.009340 
15feb88_Int_6min 02/15/1988 02:09:00   47.680350 
15feb88_Int_6min 02/15/1988 02:15:00   42.504520 
15feb88_Int_6min 02/15/1988 02:21:00   19.030310 
15feb88_Int_6min 02/15/1988 02:27:00   18.507500 
15feb88_Int_6min 02/15/1988 02:33:00   10.090250 
15feb88_Int_6min 02/15/1988 02:39:00   0.000000  
15feb88_Int_6min 02/15/1988 02:45:00   4.966700  
15feb88_Int_6min 02/15/1988 02:51:00   4.966700  
15feb88_Int_6min 02/15/1988 02:57:00   4.966700  
15feb88_Int_6min 02/15/1988 03:03:00   0.000000  
15feb88_Int_6min 02/15/1988 03:09:00   0.000000  
15feb88_Int_6min 02/15/1988 03:15:00   0.000000  
15feb88_Int_6min 02/15/1988 03:21:00   0.000000  
15feb88_Int_6min 02/15/1988 03:27:00   0.000000  
15feb88_Int_6min 02/15/1988 03:33:00   0.000000  
15feb88_Int_6min 02/15/1988 03:39:00   0.000000  
15feb88_Int_6min 02/15/1988 03:45:00   0.000000  
15feb88_Int_6min 02/15/1988 03:51:00   0.000000  
15feb88_Int_6min 02/15/1988 03:57:00   0.000000  
15feb88_Int_6min 02/15/1988 04:03:00   0.000000  
15feb88_Int_6min 02/15/1988 04:09:00   0.000000  
15feb88_Int_6min 02/15/1988 04:15:00   2.084130  
15feb88_Int_6min 02/15/1988 04:21:00   0.000000  
15feb88_Int_6min 02/15/1988 04:27:00   0.365970  
15feb88_Int_6min 02/15/1988 04:33:00   3.502830  
15feb88_Int_6min 02/15/1988 04:39:00   0.418250  
15feb88_Int_6min 02/15/1988 04:45:00   0.000000  
15feb88_Int_6min 02/15/1988 04:51:00   0.418250  
15feb88_Int_6min 02/15/1988 04:57:00   0.000000  
15feb88_Int_6min 02/15/1988 05:03:00   0.418250  
15feb88_Int_6min 02/15/1988 05:09:00   0.000000  
15feb88_Int_6min 02/15/1988 05:15:00   0.418250  
15feb88_Int_6min 02/15/1988 05:21:00   0.000000  
15feb88_Int_6min 02/15/1988 05:27:00   0.418250  
15feb88_Int_6min 02/15/1988 05:33:00   2.509490  
15feb88_Int_6min 02/15/1988 05:39:00   0.418250  
15feb88_Int_6min 02/15/1988 05:45:00   0.000000  
15feb88_Int_6min 02/15/1988 05:51:00   0.418250  
15feb88_Int_6min 02/15/1988 05:57:00   0.000000  
;
17apr88_Int_6min 04/17/1988 00:03:00   0.000000  
17apr88_Int_6min 04/17/1988 00:09:00   0.000000  
17apr88_Int_6min 04/17/1988 00:15:00   0.000000  
17apr88_Int_6min 04/17/1988 00:21:00   0.000000  
17apr88_Int_6min 04/17/1988 00:27:00   0.000000  
17apr88_Int_6min 04/17/1988 00:33:00   0.000000  
17apr88_Int_6min 04/17/1988 00:39:00   0.000000  
17apr88_Int_6min 04/17/1988 00:45:00   0.000000  
17apr88_Int_6min 04/17/1988 00:51:00   0.000000  
17apr88_Int_6min 04/17/1988 00:57:00   0.000000  
17apr88_Int_6min 04/17/1988 01:03:00   0.000000  
17apr88_Int_6min 04/17/1988 01:09:00   0.000000  
17apr88_Int_6min 04/17/1988 01:15:00   2.431070  
17apr88_Int_6min 04/17/1988 01:21:00   0.000000  
17apr88_Int_6min 04/17/1988 01:27:00   1.529220  
17apr88_Int_6min 04/17/1988 01:33:00   25.996770 
17apr88_Int_6min 04/17/1988 01:39:00   40.008100 
17apr88_Int_6min 04/17/1988 01:45:00   25.055710 
17apr88_Int_6min 04/17/1988 01:51:00   55.091190 
17apr88_Int_6min 04/17/1988 01:57:00   45.014010 
17apr88_Int_6min 04/17/1988 02:03:00   98.928880 
17apr88_Int_6min 04/17/1988 02:09:00   40.975300 
17apr88_Int_6min 04/17/1988 02:15:00   74.971070 
17apr88_Int_6min 04/17/1988 02:21:00   104.810500
17apr88_Int_6min 04/17/1988 02:27:00   59.914120 
17apr88_Int_6min 04/17/1988 02:33:00   20.036730 
17apr88_Int_6min 04/17/1988 02:39:00   34.989110 
17apr88_Int_6min 04/17/1988 02:45:00   35.015260 
17apr88_Int_6min 04/17/1988 02:51:00   20.036730 
17apr88_Int_6min 04/17/1988 02:57:00   32.375060 
17apr88_Int_6min 04/17/1988 03:03:00   53.000000 
17apr88_Int_6min 04/17/1988 03:09:00   2.391860  
17apr88_Int_6min 04/17/1988 03:15:00   5.175830  
17apr88_Int_6min 04/17/1988 03:21:00   17.331180 
17apr88_Int_6min 04/17/1988 03:27:00   15.017740 
17apr88_Int_6min 04/17/1988 03:33:00   8.900850  
17apr88_Int_6min 04/17/1988 03:39:00   1.960540  
17apr88_Int_6min 04/17/1988 03:45:00   3.921080  
17apr88_Int_6min 04/17/1988 03:51:00   0.901850  