[TITLE]
;;Project Title/Notes
Scenario Run :  BASE
Example User5

[OPTIONS]
;;Option             Value
FLOW_UNITS           CFS
INFILTRATION         HORTON
FLOW_ROUTING         DYNWAVE
LINK_OFFSETS         DEPTH
MIN_SLOPE            0
ALLOW_PONDING        NO
SKIP_STEADY_STATE    NO

START_DATE           08/11/1998
START_TIME           00:00:00
REPORT_START_DATE    08/11/1998
REPORT_START_TIME    00:00:00
END_DATE             08/11/1998
END_TIME             08:59:00
SWEEP_START          01/01
SWEEP_END            12/31
DRY_DAYS             0.000000
REPORT_STEP          00:05:00
WET_STEP             00:01:00
DRY_STEP             00:01:00
ROUTING_STEP         0:00:30 
RULE_STEP            00:00:00

INERTIAL_DAMPING     NONE
NORMAL_FLOW_LIMITED  FROUDE
FORCE_MAIN_EQUATION  H-W
VARIABLE_STEP        0.75
LENGTHENING_STEP     0
MIN_SURFAREA         12.557000
MAX_TRIALS           8
HEAD_TOLERANCE       0.005000
SYS_FLOW_TOL         5
LAT_FLOW_TOL         5
MINIMUM_STEP         0.500000
THREADS              1

[EVAPORATION]
;;Data Source    Parameters
;;-------------- ----------------
CONSTANT         0.100000
DRY_ONLY         NO

[RAINGAGES]
;;Name           Format    Interval SCF      Source    
;;-------------- --------- ------ ------ ----------
GAGE1            VOLUME    0.050000 1.000000 TIMESERIES RAINSERIES1     

[SUBCATCHMENTS]
;;Name           Rain Gage        Outlet           Area     %Imperv  Width    %Slope   CurbLen  SnowPack        
;;-------------- ---------------- ---------------- -------- -------- -------- -------- -------- ----------------
0.10_UP#1        GAGE1            0.10_UP          113.000000 26.000000 1200.000000 1.000000 0.000000                 
10SB11#1         GAGE1            10SB11           7.560000 29.100000 150.000000 1.579040 0.000000                 
10SB14#1         GAGE1            10SB14           8.470000 58.200000 75.000000 0.569180 0.000000                 
10SB17#1         GAGE1            10SB17           7.140000 10.100000 150.000000 0.835960 0.000000                 
10SB6#1          GAGE1            10SB6            8.850000 73.800000 200.000000 0.138350 0.000000                 
1121#1           GAGE1            1121             21.300000 32.700000 200.000000 0.754500 0.000000                 
11SB1#1          GAGE1            11SB1            6.170000 56.200000 100.000000 0.496100 0.000000                 
11SB11#1         GAGE1            11SB11           7.340000 29.900000 150.000000 1.125950 0.000000                 
11SB14_OF#1      GAGE1            11SB14_OF        18.270000 4.600000 225.000000 0.906670 0.000000                 
11SB14_OF#2      GAGE1            11SB14_OF        16.650000 42.800000 225.000000 1.000000 0.000000                 
11SB17#1         GAGE1            11SB17           4.810000 29.900000 100.000000 1.272730 0.000000                 
11SB6#1          GAGE1            11SB6            6.810000 49.400000 150.000000 0.269680 0.000000                 
12SB1#1          GAGE1            12SB1            6.280000 39.400000 100.000000 0.341180 0.000000                 
12SB11#1         GAGE1            12SB11           6.240000 73.300000 75.000000 0.956540 0.000000                 
12SB6#1          GAGE1            12SB6            4.460000 87.900000 250.000000 0.857880 0.000000                 
13SB1#1          GAGE1            13SB1            7.550000 34.400000 150.000000 0.668940 0.000000                 
13SB11#1         GAGE1            13SB11           18.200000 25.900000 300.000000 1.513640 0.000000                 
13SB17#1         GAGE1            13SB17           3.670000 5.200000 30.000000 0.500400 0.000000                 
13SB6#1          GAGE1            13SB6            12.430000 37.300000 175.000000 0.775690 0.000000                 
14SB1#1          GAGE1            14SB1            10.050000 40.200000 100.000000 0.365480 0.000000                 
14SB11#1         GAGE1            14SB11           11.430000 27.500000 125.000000 1.138130 0.000000                 
14SB17#1         GAGE1            14SB17           4.520000 27.000000 75.000000 0.304740 0.000000                 
14SB6#1          GAGE1            14SB6            4.720000 7.200000 75.000000 0.972750 0.000000                 
15SB1#1          GAGE1            15SB1            4.120000 39.500000 100.000000 0.445760 0.000000                 
15SB11#1         GAGE1            15SB11           16.920000 28.200000 175.000000 1.487940 0.000000                 
15SB6#1          GAGE1            15SB6            10.570000 44.600000 200.000000 1.042510 0.000000                 
16SB11#1         GAGE1            16SB11           25.460000 36.500000 250.000000 1.322470 0.000000                 
16SB17#1         GAGE1            16SB17           4.190000 25.600000 100.000000 0.365260 0.000000                 
16SB6#1          GAGE1            16SB6            7.990000 45.400000 250.000000 0.287320 0.000000                 
17SB11#1         GAGE1            17SB11           23.800000 37.000000 200.000000 1.333330 0.000000                 
17SB11#2         GAGE1            17SB11           37.200000 22.000000 400.000000 2.000000 0.000000                 
17SB11#3         GAGE1            17SB11           9.100000 62.000000 400.000000 2.000000 0.000000                 
17SB17#1         GAGE1            17SB17           9.070000 17.800000 125.000000 0.126550 0.000000                 
17SB6#1          GAGE1            17SB6            3.520000 56.800000 75.000000 0.652180 0.000000                 
18SB1#1          GAGE1            18SB1            3.060000 50.600000 75.000000 0.525160 0.000000                 
18SB6#1          GAGE1            18SB6            4.590000 31.000000 75.000000 1.000300 0.000000                 
19SB1#1          GAGE1            19SB1            5.430000 36.500000 150.000000 0.253670 0.000000                 
19SB6#1          GAGE1            19SB6            4.970000 31.900000 100.000000 1.970810 0.000000                 
1SB14#1          GAGE1            1SB14            3.500000 40.800000 125.000000 0.546590 0.000000                 
1SB19#1          GAGE1            1SB19            6.510000 46.300000 125.000000 0.293870 0.000000                 
1SB20#1          GAGE1            1SB20            4.580000 50.700000 75.000000 0.451120 0.000000                 
1SB21#1          GAGE1            1SB21            3.520000 47.200000 75.000000 1.108710 0.000000                 
1SB22#1          GAGE1            1SB22            4.160000 46.700000 75.000000 0.607030 0.000000                 
1SB23#1          GAGE1            1SB23            7.700000 47.900000 125.000000 0.795040 0.000000                 
1SB4#1           GAGE1            1SB4             2.230000 44.900000 100.000000 0.686300 0.000000                 
1SB5#1           GAGE1            1SB5             5.340000 44.400000 125.000000 0.716510 0.000000                 
1SB7#1           GAGE1            1SB7             5.470000 24.000000 150.000000 0.839370 0.000000                 
1SB9#1           GAGE1            1SB9             9.020000 29.400000 150.000000 0.712630 0.000000                 
20SB1#1          GAGE1            20SB1            8.850000 33.000000 150.000000 1.245120 0.000000                 
20SB6#1          GAGE1            20SB6            3.630000 30.400000 125.000000 1.475650 0.000000                 
21SB1#1          GAGE1            21SB1            11.390000 31.600000 150.000000 0.886830 0.000000                 
21SB6#1          GAGE1            21SB6            4.610000 38.000000 100.000000 0.929560 0.000000                 
22SB1#1          GAGE1            22SB1            5.610000 37.300000 100.000000 0.872990 0.000000                 
22SB6#1          GAGE1            22SB6            5.410000 40.300000 125.000000 1.060850 0.000000                 
23SB1#1          GAGE1            23SB1            10.530000 33.500000 150.000000 0.174410 0.000000                 
23SB6#1          GAGE1            23SB6            6.790000 46.500000 150.000000 1.014290 0.000000                 
24SB1#1          GAGE1            24SB1            3.670000 40.400000 200.000000 0.834040 0.000000                 
24SB6#1          GAGE1            24SB6            9.640000 39.300000 150.000000 1.524110 0.000000                 
25SB1#1          GAGE1            25SB1            11.920000 39.300000 125.000000 0.770360 0.000000                 
25SB6#1          GAGE1            25SB6            7.760000 38.200000 125.000000 1.183340 0.000000                 
26SB1#1          GAGE1            26SB1            4.020000 32.000000 100.000000 1.522840 0.000000                 
26SB6#1          GAGE1            26SB6            2.590000 40.800000 100.000000 0.590910 0.000000                 
27SB1#1          GAGE1            27SB1            4.820000 37.200000 125.000000 0.952570 0.000000                 
28SB1#1          GAGE1            28SB1            10.090000 41.100000 125.000000 0.644640 0.000000                 
2SB1#1           GAGE1            2SB1             3.160000 84.500000 25.000000 0.290590 0.000000                 
2SB11#1          GAGE1            2SB11            12.820000 62.300000 125.000000 0.537210 0.000000                 
2SB11#2          GAGE1            2SB11            16.880000 47.900000 250.000000 1.292000 0.000000                 
2SB14#1          GAGE1            2SB14            15.930000 24.800000 350.000000 0.672520 0.000000                 
2SB17#1          GAGE1            2SB17            9.230000 40.200000 125.000000 0.538890 0.000000                 
2SB19#1          GAGE1            2SB19            3.350000 3.700000 65.000000 0.712690 0.000000                 
2SB20_OF#1       GAGE1            2SB20_OF         6.140000 44.300000 125.000000 1.246670 0.000000                 
2SB21#1          GAGE1            2SB21            5.630000 14.800000 75.000000 0.530090 0.000000                 
2SB22#1          GAGE1            2SB22            5.750000 10.300000 75.000000 0.479100 0.000000                 
2SB23#1          GAGE1            2SB23            6.450000 33.900000 150.000000 1.067760 0.000000                 
2SB3#1           GAGE1            2SB3             2.530000 38.800000 100.000000 0.725910 0.000000                 
2SB4#1           GAGE1            2SB4             1.530000 46.300000 75.000000 0.300090 0.000000                 
2SB5#1           GAGE1            2SB5             3.440000 46.500000 75.000000 0.400410 0.000000                 
2SB7#1           GAGE1            2SB7             1.550000 41.600000 75.000000 0.222160 0.000000                 
31SB1#1          GAGE1            31SB1            10.710000 59.100000 100.000000 0.571600 0.000000                 
32SB1#1          GAGE1            32SB1            4.270000 51.700000 125.000000 0.089610 0.000000                 
33SB1#1          GAGE1            33SB1            4.460000 39.600000 200.000000 0.137260 0.000000                 
34SB1#1          GAGE1            34SB1            8.810000 48.600000 100.000000 0.590640 0.000000                 
35SB1#1          GAGE1            35SB1            5.750000 39.400000 125.000000 0.665420 0.000000                 
37SB1#1          GAGE1            37SB1            3.520000 33.000000 100.000000 0.782620 0.000000                 
38SB1#1          GAGE1            38SB1            3.560000 45.700000 75.000000 0.161210 0.000000                 
39SB1#1          GAGE1            39SB1            9.110000 39.200000 150.000000 0.554390 0.000000                 
3SB1#1           GAGE1            3SB1             7.030000 34.400000 100.000000 0.435410 0.000000                 
3SB14#1          GAGE1            3SB14            6.100000 27.600000 150.000000 0.677420 0.000000                 
3SB17#1          GAGE1            3SB17            6.300000 48.800000 125.000000 0.485860 0.000000                 
3SB21#1          GAGE1            3SB21            4.210000 14.200000 65.000000 0.708880 0.000000                 
3SB23#1          GAGE1            3SB23            5.890000 40.600000 200.000000 0.415740 0.000000                 
3SB3#1           GAGE1            3SB3             2.290000 48.100000 125.000000 0.835400 0.000000                 
3SB6#1           GAGE1            3SB6             4.260000 36.900000 150.000000 0.269450 0.000000                 
3SB7#1           GAGE1            3SB7             2.100000 23.100000 75.000000 0.437270 0.000000                 
3SB9#1           GAGE1            3SB9             6.580000 10.600000 200.000000 1.116440 0.000000                 
40SB1#1          GAGE1            40SB1            15.520000 27.000000 250.000000 1.134040 0.000000                 
41SB1#1          GAGE1            41SB1            14.190000 2.100000 200.000000 0.992260 0.000000                 
43SB1#1          GAGE1            43SB1            4.500000 50.200000 100.000000 0.680200 0.000000                 
44SB1#1          GAGE1            44SB1            5.870000 37.200000 100.000000 0.156440 0.000000                 
45SB1#1          GAGE1            45SB1            5.220000 32.500000 175.000000 0.205230 0.000000                 
46SB1#1          GAGE1            46SB1            6.310000 36.600000 200.000000 0.194040 0.000000                 
49SB1#1          GAGE1            49SB1            13.000000 16.400000 250.000000 1.118410 0.000000                 
4SB1#1           GAGE1            4SB1             10.960000 27.600000 150.000000 0.251350 0.000000                 
4SB11#1          GAGE1            4SB11            11.430000 62.300000 225.000000 0.301270 0.000000                 
4SB14#1          GAGE1            4SB14            5.430000 28.900000 175.000000 1.282430 0.000000                 
4SB17#1          GAGE1            4SB17            6.860000 39.400000 200.000000 0.803150 0.000000                 
4SB19_OF#1       GAGE1            4SB19_OF         2.660000 6.200000 175.000000 3.624760 0.000000                 
4SB23#1          GAGE1            4SB23            4.090000 44.800000 100.000000 0.299360 0.000000                 
4SB3#1           GAGE1            4SB3             2.800000 40.700000 100.000000 0.327950 0.000000                 
4SB5_OF#1        GAGE1            4SB5_OF          3.320000 17.300000 300.000000 2.212710 0.000000                 
4SB6#1           GAGE1            4SB6             5.150000 35.500000 100.000000 0.416050 0.000000                 
4SB9#1           GAGE1            4SB9             15.200000 16.000000 250.000000 1.258600 0.000000                 
51SB1#1          GAGE1            51SB1            1.250000 48.800000 100.000000 0.734620 0.000000                 
5SB1#1           GAGE1            5SB1             16.040000 23.600000 250.000000 1.144980 0.000000                 
5SB11#1          GAGE1            5SB11            9.000000 59.900000 150.000000 0.714210 0.000000                 
5SB14#1          GAGE1            5SB14            3.710000 4.200000 75.000000 1.237570 0.000000                 
5SB17#1          GAGE1            5SB17            8.320000 36.500000 150.000000 0.551850 0.000000                 
5SB3#1           GAGE1            5SB3             2.450000 38.100000 100.000000 0.499740 0.000000                 
5SB6#1           GAGE1            5SB6             5.780000 13.400000 400.000000 0.635480 0.000000                 
5SB7_OF#1        GAGE1            5SB7_OF          6.380000 8.200000 500.000000 1.919070 0.000000                 
6SB1#1           GAGE1            6SB1             7.470000 7.600000 150.000000 1.044890 0.000000                 
6SB11#1          GAGE1            6SB11            9.440000 71.800000 200.000000 0.129700 0.000000                 
6SB14#1          GAGE1            6SB14            3.240000 48.900000 75.000000 1.204530 0.000000                 
6SB17#1          GAGE1            6SB17            5.460000 27.200000 150.000000 0.672730 0.000000                 
6SB3#1           GAGE1            6SB3             3.400000 29.900000 150.000000 0.405120 0.000000                 
7SB1#1           GAGE1            7SB1             10.190000 26.100000 200.000000 0.480610 0.000000                 
7SB11#1          GAGE1            7SB11            4.180000 77.800000 125.000000 0.549210 0.000000                 
7SB14#1          GAGE1            7SB14            4.780000 6.100000 125.000000 1.040580 0.000000                 
7SB17#1          GAGE1            7SB17            7.310000 34.600000 150.000000 0.502480 0.000000                 
7SB6#1           GAGE1            7SB6             2.930000 67.200000 100.000000 0.156700 0.000000                 
8SB1#1           GAGE1            8SB1             10.250000 22.000000 150.000000 0.268760 0.000000                 
8SB11#1          GAGE1            8SB11            3.020000 60.900000 100.000000 2.229800 0.000000                 
8SB14#1          GAGE1            8SB14            2.210000 48.300000 75.000000 0.831020 0.000000                 
8SB17#1          GAGE1            8SB17            8.810000 26.700000 150.000000 0.781730 0.000000                 
8SB3_OF#1        GAGE1            8SB3_OF          4.350000 9.600000 300.000000 0.844390 0.000000                 
8SB6#1           GAGE1            8SB6             6.830000 6.700000 150.000000 1.008350 0.000000                 
9SB1#1           GAGE1            9SB1             11.920000 19.500000 175.000000 0.359500 0.000000                 
9SB11#1          GAGE1            9SB11            5.960000 14.600000 125.000000 1.925910 0.000000                 
9SB14#1          GAGE1            9SB14            6.120000 34.100000 150.000000 0.750220 0.000000                 
9SB17#1          GAGE1            9SB17            5.530000 16.600000 150.000000 1.660530 0.000000                 
SB1018_OF#1      GAGE1            SB1018_OF        2.250000 9.400000 225.000000 2.448730 0.000000                 
SB1018_OF#2      GAGE1            SB1018_OF        4.250000 28.200000 450.000000 3.410000 0.000000                 
SB1018_OF#3      GAGE1            SB1018_OF        11.900000 42.300000 600.000000 1.040000 0.000000                 
SB1216_OF#1      GAGE1            SB1216_OF        7.510000 44.400000 150.000000 0.493330 0.000000                 
SB1216_OF#2      GAGE1            SB1216_OF        3.810000 81.700000 300.000000 0.540000 0.000000                 

[SUBAREAS]
;;Subcatchment   N-Imperv   N-Perv     S-Imperv   S-Perv     PctZero    RouteTo    PctRouted 
;;-------------- ---------- ---------- ---------- ---------- ---------- ---------- ----------
0.10_UP#1        0.018000   0.035000   0.100000   0.200000   25.000000  OUTLET    
10SB11#1         0.018000   0.035000   0.100000   0.200000   25.000000  OUTLET    
10SB14#1         0.018000   0.035000   0.100000   0.200000   25.000000  OUTLET    
10SB17#1         0.018000   0.035000   0.100000   0.200000   25.000000  OUTLET    
10SB6#1          0.018000   0.035000   0.100000   0.200000   25.000000  OUTLET    
1121#1           0.018000   0.035000   0.100000   0.200000   25.000000  OUTLET    
11SB1#1          0.018000   0.035000   0.100000   0.200000   25.000000  OUTLET    
11SB11#1         0.018000   0.035000   0.100000   0.200000   25.000000  OUTLET    
11SB14_OF#1      0.018000   0.035000   0.100000   0.200000   25.000000  OUTLET    
11SB14_OF#2      0.016000   0.030000   0.100000   0.200000   25.000000  OUTLET    
11SB17#1         0.018000   0.035000   0.100000   0.200000   25.000000  OUTLET    
11SB6#1          0.018000   0.035000   0.100000   0.200000   25.000000  OUTLET    
12SB1#1          0.018000   0.035000   0.100000   0.200000   25.000000  OUTLET    
12SB11#1         0.018000   0.035000   0.100000   0.200000   25.000000  OUTLET    
12SB6#1          0.018000   0.035000   0.100000   0.200000   25.000000  OUTLET    
13SB1#1          0.018000   0.035000   0.100000   0.200000   25.000000  OUTLET    
13SB11#1         0.018000   0.035000   0.100000   0.200000   25.000000  OUTLET    
13SB17#1         0.018000   0.035000   0.100000   0.200000   25.000000  OUTLET    
13SB6#1          0.018000   0.035000   0.100000   0.200000   25.000000  OUTLET    
14SB1#1          0.018000   0.035000   0.100000   0.200000   25.000000  OUTLET    
14SB11#1         0.018000   0.035000   0.100000   0.200000   25.000000  OUTLET    
14SB17#1         0.018000   0.035000   0.100000   0.200000   25.000000  OUTLET    
14SB6#1          0.018000   0.035000   0.100000   0.200000   25.000000  OUTLET    
15SB1#1          0.018000   0.035000   0.100000   0.200000   25.000000  OUTLET    
15SB11#1         0.018000   0.035000   0.100000   0.200000   25.000000  OUTLET    
15SB6#1          0.018000   0.035000   0.100000   0.200000   25.000000  OUTLET    
16SB11#1         0.018000   0.035000   0.100000   0.200000   25.000000  OUTLET    
16SB17#1         0.018000   0.035000   0.100000   0.200000   25.000000  OUTLET    
16SB6#1          0.018000   0.035000   0.100000   0.200000   25.000000  OUTLET    
17SB11#1         0.018000   0.035000   0.100000   0.200000   25.000000  OUTLET    
17SB11#2         0.018000   0.035000   0.100000   0.200000   25.000000  OUTLET    
17SB11#3         0.018000   0.035000   0.100000   0.200000   25.000000  OUTLET    
17SB17#1         0.018000   0.035000   0.100000   0.200000   25.000000  OUTLET    
17SB6#1          0.018000   0.035000   0.100000   0.200000   25.000000  OUTLET    
18SB1#1          0.018000   0.035000   0.100000   0.200000   25.000000  OUTLET    
18SB6#1          0.018000   0.035000   0.100000   0.200000   25.000000  OUTLET    
19SB1#1          0.018000   0.035000   0.100000   0.200000   25.000000  OUTLET    
19SB6#1          0.018000   0.035000   0.100000   0.200000   25.000000  OUTLET    
1SB14#1          0.018000   0.035000   0.100000   0.200000   25.000000  OUTLET    
1SB19#1          0.016000   0.030000   0.100000   0.200000   25.000000  OUTLET    
1SB20#1          0.018000   0.035000   0.100000   0.200000   25.000000  OUTLET    
1SB21#1          0.018000   0.035000   0.100000   0.200000   25.000000  OUTLET    
1SB22#1          0.018000   0.035000   0.100000   0.200000   25.000000  OUTLET    
1SB23#1          0.018000   0.035000   0.100000   0.200000   25.000000  OUTLET    
1SB4#1           0.018000   0.035000   0.100000   0.200000   25.000000  OUTLET    
1SB5#1           0.018000   0.035000   0.100000   0.200000   25.000000  OUTLET    
1SB7#1           0.018000   0.035000   0.100000   0.200000   25.000000  OUTLET    
1SB9#1           0.018000   0.035000   0.100000   0.200000   25.000000  OUTLET    
20SB1#1          0.018000   0.035000   0.100000   0.200000   25.000000  OUTLET    
20SB6#1          0.018000   0.035000   0.100000   0.200000   25.000000  OUTLET    
21SB1#1          0.018000   0.035000   0.100000   0.200000   25.000000  OUTLET    
21SB6#1          0.018000   0.035000   0.100000   0.200000   25.000000  OUTLET    
22SB1#1          0.018000   0.035000   0.100000   0.200000   25.000000  OUTLET    
22SB6#1          0.018000   0.035000   0.100000   0.200000   25.000000  OUTLET    
23SB1#1          0.018000   0.035000   0.100000   0.200000   25.000000  OUTLET    
23SB6#1          0.018000   0.035000   0.100000   0.200000   25.000000  OUTLET    
24SB1#1          0.018000   0.035000   0.100000   0.200000   25.000000  OUTLET    
24SB6#1          0.018000   0.035000   0.100000   0.200000   25.000000  OUTLET    
25SB1#1          0.018000   0.035000   0.100000   0.200000   25.000000  OUTLET    
25SB6#1          0.018000   0.035000   0.100000   0.200000   25.000000  OUTLET    
26SB1#1          0.018000   0.035000   0.100000   0.200000   25.000000  OUTLET    
26SB6#1          0.018000   0.035000   0.100000   0.200000   25.000000  OUTLET    
27SB1#1          0.018000   0.035000   0.100000   0.200000   25.000000  OUTLET    
28SB1#1          0.018000   0.035000   0.100000   0.200000   25.000000  OUTLET    
2SB1#1           0.018000   0.035000   0.100000   0.200000   25.000000  OUTLET    
2SB11#1          0.016000   0.030000   0.100000   0.200000   25.000000  OUTLET    
2SB11#2          0.016000   0.030000   0.100000   0.200000   25.000000  OUTLET    
2SB14#1          0.018000   0.035000   0.100000   0.200000   25.000000  OUTLET    
2SB17#1          0.016000   0.030000   0.100000   0.200000   25.000000  OUTLET    
2SB19#1          0.018000   0.035000   0.100000   0.200000   25.000000  OUTLET    
2SB20_OF#1       0.018000   0.035000   0.100000   0.200000   25.000000  OUTLET    
2SB21#1          0.018000   0.035000   0.100000   0.200000   25.000000  OUTLET    
2SB22#1          0.018000   0.035000   0.100000   0.200000   25.000000  OUTLET    
2SB23#1          0.018000   0.035000   0.100000   0.200000   25.000000  OUTLET    
2SB3#1           0.018000   0.035000   0.100000   0.200000   25.000000  OUTLET    
2SB4#1           0.018000   0.035000   0.100000   0.200000   25.000000  OUTLET    
2SB5#1           0.018000   0.035000   0.100000   0.200000   25.000000  OUTLET    
2SB7#1           0.018000   0.035000   0.100000   0.200000   25.000000  OUTLET    
31SB1#1          0.018000   0.035000   0.100000   0.200000   25.000000  OUTLET    
32SB1#1          0.018000   0.035000   0.100000   0.200000   25.000000  OUTLET    
33SB1#1          0.018000   0.035000   0.100000   0.200000   25.000000  OUTLET    
34SB1#1          0.018000   0.035000   0.100000   0.200000   25.000000  OUTLET    
35SB1#1          0.018000   0.035000   0.100000   0.200000   25.000000  OUTLET    
37SB1#1          0.018000   0.035000   0.100000   0.200000   25.000000  OUTLET    
38SB1#1          0.018000   0.035000   0.100000   0.200000   25.000000  OUTLET    
39SB1#1          0.018000   0.035000   0.100000   0.200000   25.000000  OUTLET    
3SB1#1           0.018000   0.035000   0.100000   0.200000   25.000000  OUTLET    
3SB14#1          0.018000   0.035000   0.100000   0.200000   25.000000  OUTLET    
3SB17#1          0.018000   0.035000   0.100000   0.200000   25.000000  OUTLET    
3SB21#1          0.018000   0.035000   0.100000   0.200000   25.000000  OUTLET    
3SB23#1          0.018000   0.035000   0.100000   0.200000   25.000000  OUTLET    
3SB3#1           0.018000   0.035000   0.100000   0.200000   25.000000  OUTLET    
3SB6#1           0.018000   0.035000   0.100000   0.200000   25.000000  OUTLET    
3SB7#1           0.018000   0.035000   0.100000   0.200000   25.000000  OUTLET    
3SB9#1           0.018000   0.035000   0.100000   0.200000   25.000000  OUTLET    
40SB1#1          0.018000   0.035000   0.100000   0.200000   25.000000  OUTLET    
41SB1#1          0.018000   0.035000   0.100000   0.200000   25.000000  OUTLET    
43SB1#1          0.018000   0.035000   0.100000   0.200000   25.000000  OUTLET    
44SB1#1          0.018000   0.035000   0.100000   0.200000   25.000000  OUTLET    
45SB1#1          0.018000   0.035000   0.100000   0.200000   25.000000  OUTLET    
46SB1#1          0.018000   0.035000   0.100000   0.200000   25.000000  OUTLET    
49SB1#1          0.018000   0.035000   0.100000   0.200000   25.000000  OUTLET    
4SB1#1           0.018000   0.035000   0.100000   0.200000   25.000000  OUTLET    
4SB11#1          0.016000   0.030000   0.100000   0.200000   25.000000  OUTLET    
4SB14#1          0.018000   0.035000   0.100000   0.200000   25.000000  OUTLET    
4SB17#1          0.018000   0.035000   0.100000   0.200000   25.000000  OUTLET    
4SB19_OF#1       0.018000   0.035000   0.100000   0.200000   25.000000  OUTLET    
4SB23#1          0.018000   0.035000   0.100000   0.200000   25.000000  OUTLET    
4SB3#1           0.018000   0.035000   0.100000   0.200000   25.000000  OUTLET    
4SB5_OF#1        0.018000   0.035000   0.100000   0.200000   25.000000  OUTLET    
4SB6#1           0.018000   0.035000   0.100000   0.200000   25.000000  OUTLET    
4SB9#1           0.018000   0.035000   0.100000   0.200000   25.000000  OUTLET    
51SB1#1          0.018000   0.035000   0.100000   0.200000   25.000000  OUTLET    
5SB1#1           0.018000   0.035000   0.100000   0.200000   25.000000  OUTLET    
5SB11#1          0.016000   0.030000   0.100000   0.200000   25.000000  OUTLET    
5SB14#1          0.018000   0.035000   0.100000   0.200000   25.000000  OUTLET    
5SB17#1          0.018000   0.035000   0.100000   0.200000   25.000000  OUTLET    
5SB3#1           0.018000   0.035000   0.100000   0.200000   25.000000  OUTLET    
5SB6#1           0.018000   0.035000   0.100000   0.200000   25.000000  OUTLET    
5SB7_OF#1        0.018000   0.035000   0.100000   0.200000   25.000000  OUTLET    
6SB1#1           0.018000   0.035000   0.100000   0.200000   25.000000  OUTLET    
6SB11#1          0.018000   0.035000   0.100000   0.200000   25.000000  OUTLET    
6SB14#1          0.018000   0.035000   0.100000   0.200000   25.000000  OUTLET    
6SB17#1          0.018000   0.035000   0.100000   0.200000   25.000000  OUTLET    
6SB3#1           0.018000   0.035000   0.100000   0.200000   25.000000  OUTLET    
7SB1#1           0.018000   0.035000   0.100000   0.200000   25.000000  OUTLET    
7SB11#1          0.018000   0.035000   0.100000   0.200000   25.000000  OUTLET    
7SB14#1          0.018000   0.035000   0.100000   0.200000   25.000000  OUTLET    
7SB17#1          0.018000   0.035000   0.100000   0.200000   25.000000  OUTLET    
7SB6#1           0.018000   0.035000   0.100000   0.200000   25.000000  OUTLET    
8SB1#1           0.018000   0.035000   0.100000   0.200000   25.000000  OUTLET    
8SB11#1          0.018000   0.035000   0.100000   0.200000   25.000000  OUTLET    
8SB14#1          0.018000   0.035000   0.100000   0.200000   25.000000  OUTLET    