[TITLE]
;;Project Title/Notes

[OPTIONS]
;;Option             Value
FLOW_UNITS           CFS
INFILTRATION         HORTON
FLOW_ROUTING         KINWAVE
LINK_OFFSETS         DEPTH
MIN_SLOPE            0
ALLOW_PONDING        NO
SKIP_STEADY_STATE    NO

START_DATE           03/31/2003
START_TIME           00:00:00
REPORT_START_DATE    03/31/2003
REPORT_START_TIME    00:00:00
END_DATE             04/01/2003
END_TIME             00:00:00
SWEEP_START          01/01
SWEEP_END            12/31
DRY_DAYS             0
REPORT_STEP          00:15:00
WET_STEP             00:05:00
DRY_STEP             00:05:00
ROUTING_STEP         0:01:00 
RULE_STEP            00:00:00

INERTIAL_DAMPING     PARTIAL
NORMAL_FLOW_LIMITED  SLOPE
FORCE_MAIN_EQUATION  H-W
VARIABLE_STEP        0.75
LENGTHENING_STEP     0
MIN_SURFAREA         12.557
MAX_TRIALS           8
HEAD_TOLERANCE       0.005
SYS_FLOW_TOL         5
LAT_FLOW_TOL         5
MINIMUM_STEP         0.5
THREADS              1

[EVAPORATION]
;;Data Source    Parameters
;;-------------- ----------------
CONSTANT         .25
DRY_ONLY         NO

[RAINGAGES]
;;Name           Format    Interval SCF      Source    
;;-------------- --------- ------ ------ ----------
;                 Timeseries/  Source           Format/    RecdFreq/
;Name             File         Name             Station    RecdIntvl
;-------------------------------------------------------------------
GAGE1            VOLUME    1:00     1.0      TIMESERIES SERIES1         

[SUBCATCHMENTS]
;;Name           Rain Gage        Outlet           Area     %Imperv  Width    %Slope   CurbLen  SnowPack        
;;-------------- ---------------- ---------------- -------- -------- -------- -------- -------- ----------------
;                                                   Total    Pcnt.             Pcnt.    Curb     Snow
;Name             Raingage         Outlet           Area     Imperv   Width    Slope    Length   Pack
;----------------------------------------------------------------------------------------------------
8                GAGE1            104              173      53.6942  3526     0.0101   0                        
9                GAGE1            104              13       86.1998  1110     0.01     0                        
26               GAGE1            80               1217     32.7497  9433     0.0065   0                        
27               GAGE1            85               2890     29.7284  19682    0.0092   0                        
2                GAGE1            126              3359     38.8328  18814    0.0079   0                        
3                GAGE1            118              1660     41.1403  12818    0.0076   0                        
0                GAGE1            129              7699     36.098   23175    0.0074   0                        
1                GAGE1            121              43       44.0294  2188     0.0149   0                        
6                GAGE1            120              4004     20.5414  14363    0.0077   0                        
24               GAGE1            122              5617     28.3055  20142    0.0047   0                        
25               GAGE1            79               1627     33.3266  9831     0.0061   0                        
19               GAGE1            101              2300     14.8485  17424    0.0088   0                        
18               GAGE1            95               1343     43.9663  11621    0.0107   0                        
28               GAGE1            76               728      44.1322  7897     0.0077   0                        
13               GAGE1            107              2480     14.4308  13728    0.0085   0                        
12               GAGE1            110              1734     35.0313  11492    0.01     0                        
11               GAGE1            117              2840     38.6734  16221    0.0064   0                        
10               GAGE1            114              1085     34.5858  11253    0.0133   0                        
17               GAGE1            108              2808     20.1043  25842    0.0101   0                        
16               GAGE1            109              2920     15.633   16395    0.0081   0                        
15               GAGE1            102              1369     31.8235  11963    0.0114   0                        
14               GAGE1            119              754      40.1243  7380     0.0103   0                        
29               GAGE1            79               980      58.3032  10743    0.0052   0                        
20               GAGE1            92               415      36.263   5956     0.0104   0                        
21               GAGE1            106              1550     27.0672  11528    0.009    0                        
22               GAGE1            98               2140     11.126   12670    0.0077   0                        
23               GAGE1            94               2022     35.4032  10804    0.0066   0                        

[SUBAREAS]
;;Subcatchment   N-Imperv   N-Perv     S-Imperv   S-Perv     PctZero    RouteTo    PctRouted 
;;-------------- ---------- ---------- ---------- ---------- ---------- ---------- ----------
8                0.035      0.25       0.1        0.15       25         OUTLET    
9                0.035      0.25       0.1        0.15       25         OUTLET    
26               0.035      0.25       0.1        0.15       25         OUTLET    
27               0.035      0.25       0.1        0.15       25         OUTLET    
2                0.035      0.25       0.1        0.15       25         OUTLET    
3                0.035      0.25       0.1        0.15       25         OUTLET    
0                0.035      0.25       0.1        0.15       25         OUTLET    
1                0.035      0.25       0.1        0.15       25         OUTLET    
6                0.035      0.25       0.1        0.15       25         OUTLET    
24               0.035      0.25       0.1        0.15       25         OUTLET    
25               0.035      0.25       0.1        0.15       25         OUTLET    
19               0.035      0.25       0.1        0.15       25         OUTLET    
18               0.035      0.25       0.1        0.15       25         OUTLET    
28               0.035      0.25       0.1        0.15       25         OUTLET    
13               0.035      0.25       0.1        0.15       25         OUTLET    
12               0.035      0.25       0.1        0.15       25         OUTLET    
11               0.035      0.25       0.1        0.15       25         OUTLET    
10               0.035      0.25       0.1        0.15       25         OUTLET    
17               0.035      0.25       0.1        0.15       25         OUTLET    
16               0.035      0.25       0.1        0.15       25         OUTLET    
15               0.035      0.25       0.1        0.15       25         OUTLET    
14               0.035      0.25       0.1        0.15       25         OUTLET    
29               0.035      0.25       0.1        0.15       25         OUTLET    
20               0.035      0.25       0.1        0.15       25         OUTLET    
21               0.035      0.25       0.1        0.15       25         OUTLET    
22               0.035      0.25       0.1        0.15       25         OUTLET    
23               0.035      0.25       0.1        0.15       25         OUTLET    

[INFILTRATION]
;;Subcatchment   MaxRate    MinRate    Decay      DryTime    MaxInfil  
;;-------------- ---------- ---------- ---------- ---------- ----------
8                5.289      0.2644     0.0008     0.2        0         
9                3.9757     0.1988     0.0008     0.2        0         
26               5.2086     0.2624     0.0008     0.2        0         
27               5.5399     0.277      0.0008     0.2        0         
2                5.5055     0.2753     0.0008     0.2        0         
3                5.3736     0.2687     0.0008     0.2        0         
0                5.1001     0.255      0.0008     0.2        0         
1                5.2637     0.2632     0.0008     0.2        0         
6                5.6583     0.2829     0.0008     0.2        0         
24               5.6417     0.2828     0.0008     0.2        0         
25               5.1383     0.2574     0.0008     0.2        0         
19               5.6857     0.2843     0.0008     0.2        0         
18               5.1549     0.2577     0.0008     0.2        0         
28               4.7351     0.2368     0.0008     0.2        0         
13               5.7558     0.2878     0.0008     0.2        0         
12               5.4916     0.2746     0.0008     0.2        0         
11               5.5444     0.2772     0.0008     0.2        0         
10               5.5089     0.2754     0.0008     0.2        0         
17               5.7768     0.2888     0.0008     0.2        0         
16               5.8037     0.2902     0.0008     0.2        0         
15               5.7288     0.2866     0.0008     0.2        0         
14               5.474      0.2737     0.0008     0.2        0         
29               4.0716     0.2036     0.0008     0.2        0         
20               5.0835     0.2542     0.0008     0.2        0         
21               5.6647     0.2832     0.0008     0.2        0         
22               5.7688     0.2884     0.0008     0.2        0         
23               5.5812     0.2801     0.0008     0.2        0         

[JUNCTIONS]
;;Name           Elevation  MaxDepth   InitDepth  SurDepth   Aponded   
;;-------------- ---------- ---------- ---------- ---------- ----------
;                 Invert     Max.       Init.      Surcharge  Ponded
;Name             Elev.      Depth      Depth      Depth      Area
;------------------------------------------------------------------------
92               6.56       992.44     0          0          0         
76               0          999        0          0          0         
68               0          999        0          0          0         
95               3.28       995.72     0          0          0         
94               82.03      916.97     0          0          0         
129              82.03      916.97     0          0          0         
98               213.26     785.74     0          0          0         
126              82.03      916.97     0          0          0         
121              16.41      982.59     0          0          0         
120              203.42     795.58     0          0          0         
122              49.22      949.78     0          0          0         
109              62.34      936.66     0          0          0         
108              101.71     897.29     0          0          0         
118              52.5       946.5      0          0          0         
119              13.12      985.88     0          0          0         
114              19.69      979.31     0          0          0         
110              3.28       995.72     0          0          0         
106              82.03      916.97     0          0          0         
107              229.67     769.33     0          0          0         
80               3.28       995.72     0          0          0         
103              3.28       995.72     0          0          0         
102              42.65      956.35     0          0          0         
101              82.03      916.97     0          0          0         
117              52.5       946.5      0          0          0         
85               13.12      985.88     0          0          0         
104              9.84       989.16     0          0          0         
105              147.65     851.35     0          0          0         
79               0          999        0          0          0         

[OUTFALLS]
;;Name           Elevation  Type       Stage Data       Gated    Route To        
;;-------------- ---------- ---------- ---------------- -------- ----------------
Dummy            0          FREE                        NO                       

[TIMESERIES]
;;Name           Date       Time       Value     
;;-------------- ---------- ---------- ----------
;Name             Date       Time       Value
;-------------------------------------------------
SERIES1          3/31/2003  00:00:00   0.12      
SERIES1          3/31/2003  01:00:00   0.13      
SERIES1          3/31/2003  02:00:00   0.14      
SERIES1          3/31/2003  03:00:00   0.15      
SERIES1          3/31/2003  04:00:00   0.17      
SERIES1          3/31/2003  05:00:00   0.18      
SERIES1          3/31/2003  06:00:00   0.21      
SERIES1          3/31/2003  07:00:00   0.24      
SERIES1          3/31/2003  08:00:00   0.29      
SERIES1          3/31/2003  09:00:00   0.38      
SERIES1          3/31/2003  10:00:00   0.57      
SERIES1          3/31/2003  11:00:00   3.49      
SERIES1          3/31/2003  12:00:00   1.5       
SERIES1          3/31/2003  13:00:00   0.5       
SERIES1          3/31/2003  14:00:00   0.35      
SERIES1          3/31/2003  15:00:00   0.28      
SERIES1          3/31/2003  16:00:00   0.23      
SERIES1          3/31/2003  17:00:00   0.2       
SERIES1          3/31/2003  18:00:00   0.18      
SERIES1          3/31/2003  19:00:00   0.16      
SERIES1          3/31/2003  20:00:00   0.15      
SERIES1          3/31/2003  21:00:00   0.14      
SERIES1          3/31/2003  22:00:00   0.13      
SERIES1          3/31/2003  23:00:00   0.11      

[REPORT]
;;Reporting Options
SUBCATCHMENTS ALL
NODES ALL
LINKS ALL

[TAGS]

[MAP]
DIMENSIONS 314716.290 1094499.110 411456.100 1153787.280
Units      None

[COORDINATES]
;;Node           X-Coord            Y-Coord           
;;-------------- ------------------ ------------------
92               341171.950         1135246.000       
76               331017.770         1149339.270       
68               329550.130         1150841.190       
95               341181.460         1134064.810       
94               349002.060         1134718.390       
129              363302.700         1106876.570       
98               388204.510         1131834.570       
126              364145.920         1112199.090       
121              354494.110         1118913.880       
120              392143.230         1119462.570       
122              329509.400         1116596.670       
109              365480.650         1123727.300       
108              378473.170         1123930.210       
118              343856.680         1119665.110       
119              353306.590         1119691.850       
114              358605.350         1121801.670       
110              344324.700         1122671.250       
106              359224.990         1124316.860       
107              394072.780         1124350.970       
80               337795.620         1145013.400       
103              344396.220         1126018.730       
102              348077.540         1127278.820       
101              368052.340         1128325.450       
117              338584.240         1120410.230       
85               331267.370         1142795.180       
104              343416.650         1125420.220       
105              385751.020         1124776.260       
79               337153.030         1145352.760       
Dummy            353717.707         1099285.929       

[VERTICES]
;;Link           X-Coord            Y-Coord           
;;-------------- ------------------ ------------------

[Polygons]
;;Subcatchment   X-Coord            Y-Coord           
;;-------------- ------------------ ------------------
8                346429.520         1124115.530       
8                345051.470         1124104.450       
8                345052.260         1124006.020       
8                344953.830         1124005.220       
8                344954.620         1123906.790       
8                344659.320         1123904.420       
8                344660.110         1123805.980       
8                344561.680         1123805.190       
8                344564.060         1123509.900       
8                344662.490         1123510.690       
8                344664.070         1123313.820       
8                344762.500         1123314.620       
8                344764.090         1123117.750       
8                344665.650         1123116.960       
8                344666.440         1123018.530       
8                344568.010         1123017.740       
8                344568.800         1122919.300       
8                344371.940         1122917.720       
8                344374.310         1122622.420       
8                344375.900         1122425.560       
8                344277.460         1122424.770       
8                344278.260         1122326.340       
8                344081.390         1122324.750       
8                344082.180         1122226.320       
8                343590.020         1122222.370       
8                343590.810         1122123.930       
8                343492.380         1122123.140       
8                343493.170         1122024.710       
8                343296.310         1122023.130       
8                343297.100         1121924.700       
8                343100.240         1121923.110       
8                343101.030         1121824.680       
8                342904.160         1121823.100       
8                342904.960         1121724.670       
8                342806.520         1121723.870       
8                342807.310         1121625.440       
8                342708.880         1121624.650       
8                342709.670         1121526.220       
8                342512.810         1121524.640       
8                342513.600         1121426.200       
8                342218.310         1121423.830       
8                342219.100         1121325.400       
8                341923.800         1121323.020       
8                341924.590         1121224.590       
8                341826.160         1121223.800       
8                341826.950         1121125.370       
8                341630.090         1121123.790       
8                341628.500         1121320.650       
8                341726.940         1121321.440       
8                341725.350         1121518.310       
8                341823.790         1121519.100       
8                341822.990         1121617.530       
8                341921.430         1121618.320       
8                341920.640         1121716.750       
8                342019.070         1121717.540       
8                342017.480         1121914.410       
8                342115.920         1121915.200       
8                342115.130         1122013.630       
8                342213.560         1122014.420       
8                342211.970         1122211.290       
8                342310.410         1122212.080       
8                342302.490         1123196.400       
8                342204.060         1123195.610       
8                342203.270         1123294.040       
8                342104.840         1123293.250       
8                342104.050         1123391.680       
8                342202.480         1123392.470       
8                342201.690         1123490.900       
8                342300.120         1123491.690       
8                342299.330         1123590.130       
8                342693.050         1123593.290       
8                342692.260         1123691.720       
8                342889.130         1123693.310       
8                342888.340         1123791.740       
8                342986.770         1123792.530       
8                342985.980         1123890.960       
8                343084.410         1123891.750       
8                343083.620         1123990.190       
8                343280.480         1123991.770       
8                343279.690         1124090.200       
8                343476.550         1124091.780       
8                343474.180         1124387.080       
8                343572.610         1124387.870       
8                343571.030         1124584.740       
8                343472.600         1124583.940       
8                343470.220         1124879.240       
8                343371.790         1124878.450       
8                343367.830         1125370.610       
8                344549.020         1125380.110       
8                344745.880         1125381.690       
8                344746.670         1125283.260       
8                344943.540         1125284.840       
8                344944.330         1125186.410       
8                345042.760         1125187.200       
8                345043.550         1125088.770       
8                345141.980         1125089.560       
8                345142.780         1124991.130       
8                345241.210         1124991.920       
8                345242.000         1124893.490       
8                345340.430         1124894.280       
8                345341.220         1124795.850       
8                345439.660         1124796.640       
8                345440.450         1124698.210       
8                345538.880         1124699.000       
8                345539.670         1124600.570       
8                345638.100         1124601.360       
8                345638.890         1124502.930       
8                346131.060         1124506.880       
8                346132.640         1124310.020       
8                346329.500         1124311.600       
8                346330.300         1124213.170       
8                346428.730         1124213.960       
8                346429.520         1124115.530       
9                344549.020         1125380.110       
9                343367.830         1125370.610       
9                343170.970         1125369.030       
9                343170.180         1125467.460       
9                343071.740         1125466.670       
9                343070.950         1125565.100       
9                343267.820         1125566.680       
9                343267.020         1125665.110       
9                343463.890         1125666.700       
9                343463.100         1125765.130       
9                343659.960         1125766.710       
9                343659.170         1125865.140       
9                344151.330         1125869.100       
9                344152.120         1125770.670       
9                344348.990         1125772.250       
9                344347.400         1125969.120       
9                344445.830         1125969.910       
9                344448.210         1125674.610       
9                344546.640         1125675.400       
9                344549.020         1125380.110       
26               351131.520         1139214.510       
26               350836.230         1139212.130       
26               350835.430         1139310.560       
26               350638.570         1139308.980       
26               350637.780         1139407.410       
26               350440.910         1139405.820       
26               350440.120         1139504.260       
26               350341.690         1139503.460       
26               350340.890         1139601.900       
26               350242.460         1139601.100       
26               350237.700         1140191.700       
26               350139.270         1140190.910       
26               350138.480         1140289.340       
26               350040.050         1140288.550       
26               350036.080         1140780.710       
26               349937.650         1140779.920       
26               349936.070         1140976.780       
26               349837.630         1140975.990       
26               349834.460         1141369.720       
26               349736.030         1141368.930       
26               349733.650         1141664.220       
26               349635.220         1141663.430       
26               349634.430         1141761.860       
26               349437.560         1141760.280       
26               349436.770         1141858.710       
26               349141.470         1141856.330       
26               349140.680         1141954.760       
26               348648.520         1141950.800       
26               348647.720         1142049.230       
26               344612.000         1142016.730       
26               344612.790         1141918.290       
26               344415.930         1141916.710       
26               344416.720         1141818.280       
26               344318.290         1141817.480       
26               344319.870         1141620.620       
26               344123.010         1141619.030       
26               344122.220         1141717.470       
26               343925.350         1141715.880       
26               343924.560         1141814.310       
26               343432.400         1141810.350       
26               343433.190         1141711.920       
26               343334.760         1141711.120       
26               343335.550         1141612.690       
26               343237.120         1141611.900       
26               343237.910         1141513.470       
26               342942.620         1141511.090       
26               342943.410         1141412.660       
26               342746.540         1141411.070       
26               342748.130         1141214.210       
26               342551.270         1141212.620       
26               342552.060         1141114.190       
26               342453.630         1141113.400       
26               342454.420         1141014.960       
26               342257.560         1141013.380       
26               342259.140         1140816.520       
26               342160.710         1140815.720       
26               342161.500         1140717.290       
26               341767.770         1140714.120       
26               341766.190         1140910.980       
26               341667.760         1140910.190       
26               341666.960         1141008.620       
26               341568.530         1141007.830       
26               341567.740         1141106.260       
26               341469.310         1141105.470       
26               341468.510         1141203.900       
26               340976.360         1141199.940       
26               340977.940         1141003.070       
26               340879.510         1141002.280       
26               340881.090         1140805.420       
26               340684.230         1140803.830       
26               340685.020         1140705.400       
26               340488.160         1140703.810       
26               340488.950         1140605.380       
26               339799.930         1140599.830       
26               339792.000         1141584.150       
26               339693.570         1141583.360       
26               339691.980         1141780.220       
26               339396.690         1141777.840       
26               339395.900         1141876.280       
26               339297.460         1141875.480       
26               339296.670         1141973.910       
26               339198.240         1141973.120       
26               339197.450         1142071.550       
26               339099.020         1142070.760       
26               339098.220         1142169.190       
26               338999.790         1142168.400       
26               338998.210         1142365.260       
26               338899.770         1142364.470       
26               338898.980         1142462.900       
26               338997.410         1142463.690       
26               338996.620         1142562.130       
26               339095.050         1142562.920       
26               339094.260         1142661.350       
26               339192.690         1142662.140       
26               339184.760         1143646.460       
26               339086.330         1143645.670       
26               339085.540         1143744.100       
26               338987.100         1143743.310       
26               338986.310         1143841.740       
26               338887.880         1143840.950       
26               338887.090         1143939.380       
26               338788.660         1143938.590       
26               338787.860         1144037.020       
26               338689.430         1144036.220       
26               338688.640         1144134.660       
26               338491.770         1144133.070       
26               338490.980         1144231.500       
26               338294.120         1144229.920       
26               338293.320         1144328.350       
26               338096.460         1144326.760       
26               338095.670         1144425.190       
26               337997.240         1144424.400       
26               337996.440         1144522.830       
26               337898.010         1144522.040       
26               337897.220         1144620.470       