[TITLE]
;;Project Title/Notes

[OPTIONS]
;;Option             Value
FLOW_UNITS           CFS
INFILTRATION         GREEN_AMPT
FLOW_ROUTING         DYNWAVE
LINK_OFFSETS         DEPTH
MIN_SLOPE            0
ALLOW_PONDING        NO
SKIP_STEADY_STATE    NO

START_DATE           01/01/1984
START_TIME           12:00:00
REPORT_START_DATE    01/01/1984
REPORT_START_TIME    12:00:00
END_DATE             08/31/1984
END_TIME             04:00:00
SWEEP_START          01/01
SWEEP_END            12/31
DRY_DAYS             0
REPORT_STEP          00:05:00
WET_STEP             00:05:00
DRY_STEP             00:05:00
ROUTING_STEP         0:05:00 
RULE_STEP            00:00:00

INERTIAL_DAMPING     PARTIAL
NORMAL_FLOW_LIMITED  FROUDE
FORCE_MAIN_EQUATION  H-W
VARIABLE_STEP        0.75
LENGTHENING_STEP     10
MIN_SURFAREA         12.557
MAX_TRIALS           8
HEAD_TOLERANCE       0.005
SYS_FLOW_TOL         5
LAT_FLOW_TOL         5
MINIMUM_STEP         0.5
THREADS              1

[EVAPORATION]
;;Data Source    Parameters
;;-------------- ----------------
MONTHLY          0.0    0.0    0.0    5.07   6.97   7.87   8.75   7.63   5.29   3.88   0.0    0.0   
DRY_ONLY         NO

[RAINGAGES]
;;Name           Format    Interval SCF      Source    
;;-------------- --------- ------ ------ ----------
;                 Timeseries/  Source           Format/    RecdFreq/
;Name             File         Name             Station    RecdIntvl
;-------------------------------------------------------------------
1                VOLUME    1:00     1.0      TIMESERIES Rainfall        

[SUBCATCHMENTS]
;;Name           Rain Gage        Outlet           Area     %Imperv  Width    %Slope   CurbLen  SnowPack        
;;-------------- ---------------- ---------------- -------- -------- -------- -------- -------- ----------------
;                                                   Total    Pcnt.             Pcnt.    Curb     Snow
;Name             Raingage         Outlet           Area     Imperv   Width    Slope    Length   Pack
;----------------------------------------------------------------------------------------------------
J                1                1                153.352  25       1552.7   2.10     0                        
I                1                6                236.785  36       2061.98  1.68     0                        
E                1                DetPond          10       29       1773     2.14     0                        
D                1                7                256.241  28       1658     1.90     0                        
H                1                7                171.172  31       1475.5   1.98     0                        
G                1                2                114.297  34       944.5    2.03     0                        
F                1                11               172.348  32       1023.2   1.66     0                        
C                1                5                157.814  35       1343.2   2.03     0                        
B                1                4                156.967  34       1376.8   2.18     0                        
A                1                3                167.843  53       1853.2   2.13     0                        

[SUBAREAS]
;;Subcatchment   N-Imperv   N-Perv     S-Imperv   S-Perv     PctZero    RouteTo    PctRouted 
;;-------------- ---------- ---------- ---------- ---------- ---------- ---------- ----------
J                0.011      0.15       0.05       0.05       25         OUTLET    
I                0.011      0.15       0.05       0.05       25         OUTLET    
E                0.011      0.15       0.05       0.05       25         OUTLET    
D                0.011      0.15       0.05       0.05       25         OUTLET    
H                0.011      0.15       0.05       0.05       25         OUTLET    
G                0.011      0.15       0.05       0.05       25         OUTLET    
F                0.011      0.15       0.05       0.05       25         OUTLET    
C                0.011      0.15       0.05       0.05       25         OUTLET    
B                0.011      0.15       0.05       0.05       25         OUTLET    
A                0.011      0.15       0.05       0.05       25         OUTLET    

[INFILTRATION]
;;Subcatchment   Suction    Ksat       IMD       
;;-------------- ---------- ---------- ----------
J                9.83       0.165      0.001     
I                10.53      0.171      0.001     
E                9.56       0.163      0.001     
D                9.75       0.231      0.001     
H                9.95       0.260      0.001     
G                9.34       0.334      0.001     
F                9.71       0.279      0.001     
C                10.17      0.236      0.001     
B                10.28      0.217      0.001     
A                10.00      0.205      0.001     

[JUNCTIONS]
;;Name           Elevation  MaxDepth   InitDepth  SurDepth   Aponded   
;;-------------- ---------- ---------- ---------- ---------- ----------
;                 Invert     Max.       Init.      Surcharge  Ponded
;Name             Elev.      Depth      Depth      Depth      Area
;------------------------------------------------------------------------
1                1302       0          0          0          0         
2                1226       0          0          0          0         
3                1276       0          0          0          0         
4                1252       0          0          0          0         
5                1234       0          0          0          0         
6                1260       0          0          0          0         
7                1240       0          0          0          0         
8                1260       0          0          0          0         

[OUTFALLS]
;;Name           Elevation  Type       Stage Data       Gated    Route To        
;;-------------- ---------- ---------- ---------------- -------- ----------------
;                 Invert     Outfall      Stage/Table
;Name             Elev.      Type         Time Series
;----------------------------------------------------
11               1210       FREE                        NO                       

[STORAGE]
;;Name           Elev.    MaxDepth   InitDepth  Shape      Curve Name/Params            N/A      Fevap    Psi      Ksat     IMD     
;;-------------- -------- ---------- ----------- ---------- ---------------------------- -------- --------          -------- --------
;                 Invert     Max.       Init.
;Name             Elev.      Depth      Depth      Geometry
;---------------------------------------------------------------------
;10 and 100 storage
DetPond          1265     10.5       0          TABULAR    Storage                      0        0       

[CONDUITS]
;;Name           From Node        To Node          Length     Roughness  InOffset   OutOffset  InitFlow   MaxFlow   
;;-------------- ---------------- ---------------- ---------- ---------- ---------- ---------- ---------- ----------
;                 Inlet            Outlet                      Manning    Inlet      Outlet     Init.
;Name             Node             Node             Length     N          Height     Height     Flow
;------------------------------------------------------------------------------------------------------------
R120             2                11               4074       0.04       0          0          0          0         
;Cut from contours
R1670            7                2                1702.8     0.04       0          0          0          0         
;Typical Cross Section Cut from Contours
R560             3                4                2260.4     0.04       0          0          0          0         
;R570 Cut from Contours
R570             4                5                1796.4     0.04       0          0          0          0         
;R110 Cut from Cross Sections
R110             5                2                1029.2     0.04       0          0          0          0         
R2040            6                7                4191       0.04       0          0          0          0         
R160             1                6                3809       0.04       0          0          0          0         
15               8                6                2          0.01       0          0          0          0         

[ORIFICES]
;;Name           From Node        To Node          Type         Offset     Qcoeff     Gated    CloseTime 
;;-------------- ---------------- ---------------- ------------ ---------- ---------- -------- ----------
;                 Inlet            Outlet                        Invert     Disch.     Flap
;Name             Node             Node             Type         Height     Coeff.     Gate
;-------------------------------------------------------------------------------------------
;2 Year Control
2                DetPond          8                BOTTOM       0          0.61       NO       0         

[XSECTIONS]
;;Link           Shape        Geom1            Geom2      Geom3      Geom4      Barrels    Culvert   
;;-------------- ------------ ---------------- ---------- ---------- ---------- ---------- ----------
R120             IRREGULAR    R346             0          0          0          1                    
R1670            IRREGULAR    R1670            0          0          0          1                    
R560             IRREGULAR    R560             0          0          0          1                    
R570             IRREGULAR    R570             0          0          0          1                    
R110             IRREGULAR    R110             0          0          0          1                    
R2040            IRREGULAR    R2040            0          0          0          1                    
R160             IRREGULAR    R160             0          0          0          1                    
15               DUMMY        0                0          0          0          1                    
2                CIRCULAR     0.5              0          0          0

[TRANSECTS]
;;Transect Data in HEC-2 format
;
;--------------------------------------------------------------------------------------------
NC 0.06     0.06     0.04    
X1 R560              8        345.224  441.744  0.0      0.0      0.0      0.0      0.0     
GR 1280     14.014   1274     143.891  1266     345.224  1264     380.908  1264     416.144 
GR 1266     441.744  1272     581.393  1280     698.364 
;
NC 0.06     0.06     0.04    
X1 R570              8        484.667  516.258  0.0      0.0      0.0      0.0      0.0     
GR 1258     32.231   1254     259.318  1250     484.667  1248     494.734  1248     507.471 
GR 1250     516.258  1252     559.979  1258     581.615 
;
NC 0.06     0.06     0.04    
X1 R110              8        366.63   401.842  0.0      0.0      0.0      0.0      0.0     
GR 1246     142.671  1242     277.194  1236     366.63   1230     381.804  1230     385.248 
GR 1236     401.842  1238     499.377  1246.06  988.08  
;
NC 0.06     0.06     0.04    
X1 R390              21       386.37   584.81   0.0      0.0      0.0      0.0      0.0     
GR 1296.000 26.23    1294.000 59.07    1292.000 95.06    1290.000 134.92   1288.000 183.80  
GR 1286.000 245.95   1284.000 312.46   1282.000 347.90   1282.000 370.30   1282.000 386.37  
GR 1280.000 398.05   1278.000 405.38   1278.000 422.52   1280.000 519.82   1282.000 584.81  
GR 1284.000 604.41   1286.000 625.29   1288.000 646.12   1290.000 671.92   1292.000 709.64  
GR 1294.000 738.96  
;
NC 0.06     0.06     0.04    
X1 R2040             8        484.031  506.162  0.0      0.0      0.0      0.0      0.0     
GR 1268     302.08   1262     410.856  1256     484.031  1254     491.862  1254     498.194 
GR 1256     506.162  1258     638.474  1268     1008.95 
;
NC 0.06     0.06     0.04    
X1 R1670             8        393.186  413.007  0.0      0.0      0.0      0.0      0.0     
GR 1242     64.55    1238.99  228.9    1236     393.186  1232     402.225  1232     407.277 
GR 1236     413.007  1240     453.049  1242     489.948 
;
NC 0.06     0.04     0.06    
X1 R346              22       424.59   605.47   0.0      0.0      0.0      0.0      0.0     
GR 1238.000 2.32     1236.000 72.12    1234.000 250.63   1232.000 312.81   1230.000 424.59  
GR 1228.000 487.18   1226.000 553.24   1224.000 556.65   1222.000 560.27   1220.000 563.86  
GR 1218.000 567.47   1218.000 571.52   1220.000 578.88   1222.000 584.60   1224.000 589.89  
GR 1226.000 595.04   1228.000 600.26   1230.000 605.47   1232.000 830.26   1234.000 890.49  
GR 1236.000 1003.24  1238.000 1134.89 
;
NC 0.01     0.01     0.01    
X1 R1470             8        366.68   383.857  0.0      0.0      0.0      0.0      0.0     
GR 1294     228.252  1284     293.043  1282     366.68   1280.02  370.37   1280.02  377.21  
GR 1282     383.857  1288     588.42   1294     814.275 
;
NC 0.06     0.06     0.04    
X1 R1680             8        385.457  404.207  0.0      0.0      0.0      0.0      0.0     
GR 1254     78.281   1250     266.935  1242     385.457  1240     394.345  1240     400.522 
GR 1242     404.207  1244     800.376  1254     856.974 
;
NC 0.06     0.06     0.04    
X1 R160              8        309.791  341.628  0.0      0.0      0.0      0.0      0.0     
GR 1200     253.021  1192     277.428  1188     309.791  1182     325.333  1182     327.132 
GR 1188     341.628  1192     352.994  1198     586.28  

[CURVES]
;;Name           Type       X-Value    Y-Value   
;;-------------- ---------- ---------- ----------
;Flood Control for 2, 10, and 100
FloodControl     Rating     0          0         
FloodControl                0.1        1         
FloodControl                0.2        3         
FloodControl                0.3        5         
FloodControl                0.4        8         
FloodControl                0.5        11        
FloodControl                1          31        
FloodControl                1.5        57        
FloodControl                1.8        75        
FloodControl                2          87        
FloodControl                2.5        144       
FloodControl                3          222       
FloodControl                3.5        316       
FloodControl                4          422       
FloodControl                4.5        539       
FloodControl                5          666       
FloodControl                5.5        802       
FloodControl                6          948       
FloodControl                6.5        1101      
FloodControl                7          1262      
FloodControl                7.5        1430      
FloodControl                8          1606      
FloodControl                8.5        1788      
FloodControl                9          1977      
FloodControl                9.5        2172      
FloodControl                10         2373      
FloodControl                10.5       2580      
;
;Name             Type       X-Value    Y-Value
;-------------------------------------------------
;25acres 4:1 slopes
Storage          Storage    0          108900    
Storage                     0.5        117612    
Storage                     1          126324    
Storage                     1.5        135036    
Storage                     2          143748    
Storage                     2.5        152460    
Storage                     3          161172    
Storage                     3.5        169884    
Storage                     4          178596    
Storage                     4.5        187308    
Storage                     5          196020    
Storage                     5.5        204732    
Storage                     6          213444    
Storage                     6.5        222156    
Storage                     7          230868    
Storage                     7.5        239580    
Storage                     8          248292    
Storage                     8.5        257004    
Storage                     9          265716    
Storage                     9.5        274428    
Storage                     10         283140    
Storage                     10.5       291852    

[TIMESERIES]
;;Name           Date       Time       Value     
;;-------------- ---------- ---------- ----------
;Name             Date       Time       Value
;-------------------------------------------------
Rainfall         05/17/1983 05:00      0.079     
Rainfall         05/17/1983 06:00      0.197     
Rainfall         05/17/1983 07:00      0.079     
Rainfall         05/17/1983 19:00      0.039     
Rainfall         05/17/1983 20:00      0.039     
Rainfall         05/17/1983 22:00      0.079     
Rainfall         05/18/1983 10:00      0.079     
Rainfall         05/18/1983 16:00      0.473     
Rainfall         05/18/1983 17:00      0.315     
Rainfall         05/18/1983 18:00      0.276     
Rainfall         05/18/1983 19:00      0.315     
Rainfall         05/24/1983 18:00      0.039     
Rainfall         05/31/1983 18:00      0.039     
Rainfall         06/05/1983 02:00      0.079     
Rainfall         06/05/1983 03:00      0.039     
Rainfall         06/05/1983 04:00      0.118     
Rainfall         06/10/1983 17:00      0.079     
Rainfall         06/10/1983 19:00      0.039     
Rainfall         06/10/1983 21:00      0.118     
Rainfall         06/10/1983 22:00      0.039     
Rainfall         06/16/1983 13:00      0.039     
Rainfall         06/17/1983 09:00      0.039     
Rainfall         06/17/1983 20:00      0.118     
Rainfall         06/17/1983 21:00      0.709     
Rainfall         06/17/1983 22:00      0.118     
Rainfall         06/17/1983 23:00      0.079     
Rainfall         06/17/1983 24:00      0.079     
Rainfall         06/18/1983 01:00      0.079     
Rainfall         06/26/1983 15:00      0.158     
Rainfall         06/26/1983 16:00      0.118     
Rainfall         06/26/1983 18:00      0.236     
Rainfall         06/26/1983 19:00      0.039     
Rainfall         06/26/1983 23:00      0.276     
Rainfall         06/26/1983 24:00      0.552     
Rainfall         06/27/1983 01:00      0.158     
Rainfall         06/27/1983 02:00      0.079     
Rainfall         06/27/1983 03:00      0.039     
Rainfall         06/27/1983 04:00      0.079     
Rainfall         06/27/1983 05:00      0.079     
Rainfall         06/27/1983 14:00      0.079     
Rainfall         06/28/1983 14:00      0.136     
Rainfall         06/28/1983 21:00      0.097     
Rainfall         06/28/1983 22:00      0.084     
Rainfall         06/28/1983 23:00      0.019     
Rainfall         06/28/1983 24:00      0.006     
Rainfall         06/29/1983 11:00      0.071     
Rainfall         07/23/1983 15:00      0.006     
Rainfall         07/23/1983 16:00      0.006     
Rainfall         07/24/1983 14:00      0.019     
Rainfall         07/28/1983 21:00      0.09      
Rainfall         07/28/1983 22:00      0.065     
Rainfall         07/28/1983 23:00      0.006     
Rainfall         07/29/1983 03:00      0.039     
Rainfall         07/29/1983 05:00      0.006     
Rainfall         08/05/1983 05:00      0.019     
Rainfall         08/05/1983 06:00      0.006     
Rainfall         08/05/1983 07:00      0.006     
Rainfall         08/06/1983 10:00      0.079     
Rainfall         08/06/1983 11:00      0.039     
Rainfall         08/20/1983 14:00      0.197     
Rainfall         08/20/1983 15:00      0.118     
Rainfall         08/20/1983 16:00      0.158     
Rainfall         08/20/1983 17:00      0.079     
Rainfall         08/20/1983 18:00      0.039     
Rainfall         08/20/1983 19:00      0.079     
Rainfall         08/20/1983 20:00      0.394     
Rainfall         08/20/1983 21:00      0.118     
Rainfall         08/20/1983 22:00      0.079     
Rainfall         08/22/1983 05:00      0.827     
Rainfall         08/22/1983 06:00      0.039     
Rainfall         08/22/1983 08:00      0.079     
Rainfall         08/23/1983 05:00      0.158     
Rainfall         08/23/1983 06:00      0.118     
Rainfall         08/23/1983 07:00      0.118     
Rainfall         09/10/1983 13:00      0.079     
Rainfall         09/12/1983 02:00      0.039     
Rainfall         09/12/1983 03:00      0.079     
Rainfall         09/14/1983 18:00      0.118     
Rainfall         09/15/1983 04:00      0.039     
Rainfall         09/15/1983 05:00      0.118     
Rainfall         09/15/1983 06:00      0.079     
Rainfall         09/19/1983 19:00      0.158     
Rainfall         09/19/1983 20:00      0.473     
Rainfall         09/19/1983 21:00      0.079     
Rainfall         09/19/1983 24:00      0.039     
Rainfall         09/20/1983 06:00      0.039     
Rainfall         09/28/1983 11:00      0.039     
Rainfall         09/28/1983 12:00      0.118     
Rainfall         09/28/1983 14:00      0.079     
Rainfall         09/28/1983 20:00      0.158     
Rainfall         09/28/1983 21:00      0.236     
Rainfall         09/28/1983 22:00      0.197     
Rainfall         09/28/1983 23:00      0.118     
Rainfall         09/28/1983 24:00      0.039     
Rainfall         09/29/1983 01:00      0.118     
Rainfall         09/29/1983 02:00      0.118     
Rainfall         09/29/1983 03:00      0.236     
Rainfall         09/29/1983 04:00      0.079     
Rainfall         10/02/1983 23:00      0.039     
Rainfall         10/04/1983 04:00      0.158     
Rainfall         10/04/1983 05:00      0.079     
Rainfall         10/04/1983 06:00      0.118     
Rainfall         10/04/1983 07:00      0.039     
Rainfall         10/05/1983 16:00      0.039     
Rainfall         10/10/1983 20:00      0.433     
Rainfall         10/10/1983 21:00      0.512     
Rainfall         10/10/1983 22:00      0.197     
Rainfall         10/10/1983 23:00      0.039     
Rainfall         10/10/1983 24:00      0.079     
Rainfall         10/11/1983 04:00      0.039     
Rainfall         10/18/1983 22:00      0.039     
Rainfall         10/19/1983 02:00      0.158     
Rainfall         10/19/1983 03:00      0.118     
Rainfall         10/19/1983 14:00      0.039     
Rainfall         10/19/1983 15:00      0.039     
Rainfall         10/21/1983 05:00      0.039     
Rainfall         11/03/1983 09:00      0.158     
Rainfall         11/03/1983 10:00      1.182     
Rainfall         11/03/1983 11:00      0.039     
Rainfall         11/06/1983 04:00      0.158     
Rainfall         11/06/1983 05:00      0.039     
Rainfall         11/08/1983 15:00      0.079     
Rainfall         11/08/1983 17:00      0.039     
Rainfall         11/08/1983 22:00      0.039     
Rainfall         11/08/1983 24:00      0.079     
Rainfall         11/09/1983 03:00      0.158     
Rainfall         11/09/1983 04:00      0.079     
Rainfall         11/09/1983 05:00      0.039     
Rainfall         11/09/1983 06:00      0.039     
Rainfall         11/09/1983 07:00      0.079     
Rainfall         11/09/1983 08:00      0.039     
Rainfall         11/09/1983 09:00      0.039     
Rainfall         11/09/1983 10:00      0.079     
Rainfall         11/09/1983 11:00      0.079     
Rainfall         11/09/1983 12:00      0.039     
Rainfall         11/12/1983 11:00      0.039     
Rainfall         11/12/1983 20:00      0.039     
Rainfall         11/17/1983 12:00      0.079     
Rainfall         11/19/1983 10:00      0.039     
Rainfall         11/19/1983 13:00      0.039     
Rainfall         11/19/1983 14:00      0.039     
Rainfall         11/29/1983 13:00      0.039     
Rainfall         11/29/1983 14:00      0.079     
Rainfall         11/29/1983 15:00      0.079     
Rainfall         12/02/1983 11:00      0.039     
Rainfall         12/05/1983 16:00      0.012     
Rainfall         12/05/1983 17:00      0.012     
Rainfall         12/05/1983 20:00      0.012     
Rainfall         12/05/1983 21:00      0.012     
Rainfall         12/05/1983 23:00      0.012     
Rainfall         12/06/1983 04:00      0.012     
Rainfall         12/14/1983 04:00      0.012     
Rainfall         12/14/1983 07:00      0.012     
Rainfall         12/14/1983 08:00      0.012     
Rainfall         12/14/1983 09:00      0.012     
Rainfall         12/14/1983 10:00      0.024     
Rainfall         12/14/1983 11:00      0.024     
Rainfall         12/14/1983 12:00      0.012     
Rainfall         12/14/1983 19:00      0.012     
Rainfall         12/14/1983 20:00      0.012     
Rainfall         12/15/1983 04:00      0.012     
Rainfall         12/15/1983 13:00      0.012     
Rainfall         12/17/1983 13:00      0.012     
Rainfall         12/17/1983 17:00      0.012     
Rainfall         12/17/1983 18:00      0.012     
Rainfall         12/17/1983 19:00      0.012     
Rainfall         12/17/1983 21:00      0.012     
Rainfall         12/17/1983 22:00      0.012     
Rainfall         12/17/1983 23:00      0.012     
Rainfall         12/18/1983 01:00      0.012     
Rainfall         12/20/1983 13:00      0.024     
Rainfall         12/20/1983 14:00      0.037     
Rainfall         12/20/1983 15:00      0.024     
Rainfall         12/20/1983 16:00      0.012     
Rainfall         12/20/1983 17:00      0.012     
Rainfall         12/20/1983 18:00      0.012     
Rainfall         12/20/1983 19:00      0.012     
Rainfall         12/20/1983 20:00      0.037     
Rainfall         12/20/1983 21:00      0.012     
Rainfall         12/20/1983 23:00      0.012     
Rainfall         12/20/1983 24:00      0.012     
Rainfall         12/21/1983 01:00      0.012     
Rainfall         12/22/1983 24:00      0.012     
Rainfall         12/23/1983 06:00      0.012     
Rainfall         12/27/1983 14:00      0.012     
Rainfall         12/27/1983 15:00      0.012     
Rainfall         12/27/1983 17:00      0.012     
Rainfall         12/27/1983 18:00      0.024     
Rainfall         12/27/1983 20:00      0.012     
Rainfall         12/27/1983 21:00      0.012     
Rainfall         12/27/1983 22:00      0.024     
Rainfall         12/27/1983 23:00      0.012     
Rainfall         12/31/1983 22:00      0.012     
Rainfall         12/31/1983 23:00      0.037     
Rainfall         12/31/1983 24:00      0.073     
Rainfall         01/01/1984 01:00      0.037     
Rainfall         01/01/1984 02:00      0.061     
Rainfall         01/01/1984 03:00      0.073     
Rainfall         01/01/1984 04:00      0.024     
Rainfall         01/01/1984 05:00      0.024     
Rainfall         01/01/1984 06:00      0.024     
Rainfall         01/01/1984 10:00      0.012     
Rainfall         01/12/1984 18:00      0.012     
Rainfall         01/12/1984 21:00      0.012     
Rainfall         01/12/1984 23:00      0.012     
Rainfall         01/14/1984 10:00      0.012     
Rainfall         01/15/1984 12:00      0.012     
Rainfall         01/15/1984 14:00      0.012     
Rainfall         02/15/1984 13:00      0.085     
Rainfall         02/15/1984 14:00      0.049     
Rainfall         02/15/1984 15:00      0.037     
Rainfall         02/15/1984 20:00      0.024     
Rainfall         02/15/1984 21:00      0.012     
Rainfall         02/16/1984 02:00      0.11      
Rainfall         02/16/1984 03:00      0.049     
Rainfall         02/16/1984 05:00      0.024     
Rainfall         02/18/1984 03:00      0.012     
Rainfall         02/18/1984 04:00      0.061     
Rainfall         02/18/1984 05:00      0.098     
Rainfall         02/18/1984 06:00      0.134     
Rainfall         02/18/1984 07:00      0.061     
Rainfall         02/18/1984 08:00      0.22      
Rainfall         02/18/1984 09:00      0.183     
Rainfall         02/18/1984 10:00      0.11      
Rainfall         02/18/1984 11:00      0.061     
Rainfall         02/18/1984 13:00      0.012     
Rainfall         02/18/1984 14:00      0.012     
Rainfall         02/18/1984 15:00      0.037     
Rainfall         02/18/1984 16:00      0.012     
Rainfall         02/18/1984 17:00      0.012     
Rainfall         02/25/1984 20:00      0.024     
Rainfall         02/25/1984 21:00      0.024     
Rainfall         02/25/1984 22:00      0.037     
Rainfall         02/25/1984 24:00      0.012     
Rainfall         02/27/1984 06:00      0.012     
Rainfall         02/27/1984 11:00      0.012     
Rainfall         03/03/1984 20:00      0.024     
Rainfall         03/03/1984 23:00      0.147     
Rainfall         03/03/1984 24:00      0.171     
Rainfall         03/04/1984 01:00      0.147     
Rainfall         03/04/1984 02:00      0.049     
Rainfall         03/04/1984 06:00      0.012     
Rainfall         03/07/1984 16:00      0.147     
Rainfall         03/07/1984 19:00      0.037     
Rainfall         03/09/1984 10:00      0.012     
Rainfall         03/09/1984 11:00      0.024     
Rainfall         03/09/1984 12:00      0.012     
Rainfall         03/09/1984 13:00      0.012     
Rainfall         03/09/1984 14:00      0.037     
Rainfall         03/09/1984 15:00      0.024     
Rainfall         03/09/1984 16:00      0.012     
Rainfall         03/09/1984 17:00      0.024     
Rainfall         03/09/1984 18:00      0.012     
Rainfall         03/09/1984 19:00      0.012     
Rainfall         03/09/1984 20:00      0.012     
Rainfall         03/11/1984 19:00      0.012     
Rainfall         03/11/1984 20:00      0.049     
Rainfall         03/11/1984 21:00      0.037     
Rainfall         03/11/1984 22:00      0.024     