[TITLE]
;;Project Title/Notes


[OPTIONS]
;;Option             Value
FLOW_UNITS           CMS
INFILTRATION         CURVE_NUMBER
FLOW_ROUTING         DYNWAVE
LINK_OFFSETS         DEPTH
MIN_SLOPE            0
ALLOW_PONDING        NO
SKIP_STEADY_STATE    NO

START_DATE           01/01/2019
START_TIME           00:00:00
REPORT_START_DATE    01/01/2019
REPORT_START_TIME    00:00:00
END_DATE             01/01/2019
END_TIME             20:00:00
SWEEP_START          01/01
SWEEP_END            12/31
DRY_DAYS             0
REPORT_STEP          00:05:00
WET_STEP             00:05:00
DRY_STEP             01:00:00
ROUTING_STEP         0:00:30 
RULE_STEP            00:00:00

INERTIAL_DAMPING     PARTIAL
NORMAL_FLOW_LIMITED  BOTH
FORCE_MAIN_EQUATION  H-W
VARIABLE_STEP        0.75
LENGTHENING_STEP     0
MIN_SURFAREA         1.14
MAX_TRIALS           15
HEAD_TOLERANCE       0.0015
SYS_FLOW_TOL         5
LAT_FLOW_TOL         5
MINIMUM_STEP         0.5
THREADS              1

[EVAPORATION]
;;Data Source    Parameters
;;-------------- ----------------
CONSTANT         0.0
DRY_ONLY         NO

[RAINGAGES]
;;Name           Format    Interval SCF      Source    
;;-------------- --------- ------ ------ ----------
RG10             CUMULATIVE 0:05     1.0      TIMESERIES Storm1          

[SUBCATCHMENTS]
;;Name           Rain Gage        Outlet           Area     %Imperv  Width    %Slope   CurbLen  SnowPack        
;;-------------- ---------------- ---------------- -------- -------- -------- -------- -------- ----------------
C-1              RG10             J-234            10.0819  25       250      0.5      0                        
C-2              RG10             C-1              2.2412   75       122      0.1      0                        
C-3              RG10             J-2004           5.8375   75       245      0.6      0                        
C-4              RG10             J-203            4.0012   25       199      0.2      0                        
C-5              RG10             C-4              7.1431   50       271      0.2      0                        
C-6              RG10             J-2003           3.4746   50       206      0.6      0                        
C-7              RG10             J-2005           18.7765  50       269      0.9      0                        
C-8              RG10             C-7              11.1597  50       352      0.5      0                        
C-9              RG10             C-13             4.6865   25       191      0.2      0                        
C-10             RG10             J-641            3.0505   50       131      0.6      0                        
C-11             RG10             J-651            4.7089   50       178      0.5      0                        
C-12             RG10             C-10             4.1984   50       223      0.8      0                        
C-13             RG10             J-2006           6.3783   25       186      0.9      0                        
C-14             RG10             C-13             4.4631   25       169      0.8      0                        
C-15             RG10             C-16             5.4685   25       196      0.8      0                        
C-16             RG10             J-691            2.8784   0        180      0.3      0                        
C-17             RG10             J-714            2.9141   50       131      0.4      0                        
C-18             RG10             C-17             4.3078   0        236      0.9      0                        
C-19             RG10             J-2007           2.6881   50       104      0.8      0                        
C-20             RG10             J-520            8.299    25       203      0.6      0                        
C-21             RG10             J-520            7.3367   0        276      0.8      0                        
C-22             RG10             J-2007           5.7138   50       211      0.2      0                        
C-23             RG10             J-540            15.2053  50       260      0.3      0                        
C-24             RG10             J-743            9.24     25       336      0.2      0                        
C-25             RG10             J-749            3.9765   25       153      0.1      0                        
C-26             RG10             J-749            4.6577   25       120      0.4      0                        
C-27             RG10             C-91             4.3072   50       120      0.4      0                        
C-28             RG10             C-23             6.0217   75       223      0.2      0                        
C-29             RG10             J-772            7.2538   25       131      0.3      0                        
C-30             RG10             J-778            3.7169   50       146      0.3      0                        
C-31             RG10             J-794            2.5936   50       118      0.4      0                        
C-32             RG10             J-794            2.4951   50       115      0.5      0                        
C-33             RG10             C-30             5.3672   25       216      0.1      0                        
C-34             RG10             C-35             2.1571   50       137      0.1      0                        
C-35             RG10             C-36             3.3353   50       169      0.1      0                        
C-36             RG10             J-485            2.8514   50       138      0.2      0                        
C-37             RG10             J-794            4.934    50       125      0.5      0                        
C-38             RG10             J-520            4.3098   25       161      0.3      0                        
C-39             RG10             C-1              11.3647  25       295      0.6      0                        
C-40             RG10             J-580            14.58    50       380      0.6      0                        
C-41             RG10             J-580            6.0248   50       97       0.1      0                        
C-42             RG10             C-43             1.6354   75       125      0.1      0                        
C-43             RG10             C-6              3.5377   50       120      0.4      0                        
C-44             RG10             C-54             1.5729   75       137      0.5      0                        
C-45             RG10             J-632            5.5749   75       186      0.5      0                        
C-46             RG10             C-51             3.4226   75       119      0.7      0                        
C-47             RG10             J-565            10.9702  75       228      0.2      0                        
C-48             RG10             J-2012           5.8779   25       141      0.2      0                        
C-49             RG10             J-555            4.6059   75       129      0.2      0                        
C-50             RG10             C-49             4.6945   75       138      0.3      0                        
C-51             RG10             J-969            3.3402   75       133      0.8      0                        
C-52             RG10             J-969            3.3035   50       139      0.5      0                        
C-53             RG10             C-52             6.2258   25       167      0.4      0                        
C-54             RG10             J-964            13.9866  25       145      0.7      0                        
C-55             RG10             J-185            4.0113   0        160      0.7      0                        
C-56             RG10             J-144            2.674    25       156      0.7      0                        
C-57             RG10             C-56             3.8876   25       135      0.5      0                        
C-58             RG10             C-56             3.4792   50       122      0.7      0                        
C-59             RG10             J-2002           2.9269   25       115      0.4      0                        
C-60             RG10             C-59             3.2464   25       117      0.2      0                        
C-61             RG10             C-59             16.3569  50       370      0.4      0                        
C-62             RG10             C-61             8.6196   50       222      0.6      0                        
C-63             RG10             J-418            5.3012   50       162      0.3      0                        
C-64             RG10             J-392            3.3399   75       183      0.5      0                        
C-65             RG10             J-392            0.7601   50       67       0.9      0                        
C-66             RG10             C-64             3.2768   75       130      0.5      0                        
C-67             RG10             C-83             5.3572   50       240      0.8      0                        
C-68             RG10             J-387            5.0056   50       167      0.7      0                        
C-69             RG10             C-82             1.3223   75       78       0.2      0                        
C-70             RG10             C-68             2.2545   25       115      0.6      0                        
C-71             RG10             J-2001           5.9533   25       223      0.2      0                        
C-72             RG10             C-71             3.1876   50       107      0.5      0                        
C-73             RG10             C-75             3.0671   50       105      0.5      0                        
C-74             RG10             C-70             0.1905   0        37       0.3      0                        
C-75             RG10             J-947            6.0094   25       183      0.2      0                        
C-76             RG10             C-81             2.9021   75       89       0.6      0                        
C-77             RG10             C-80             0.9757   75       72       0.1      0                        
C-78             RG10             C-79             9.7592   50       303      0.2      0                        
C-79             RG10             J-931            2.3258   75       180      0.2      0                        
C-80             RG10             J-924            0.5765   75       73       0.1      0                        
C-81             RG10             J-924            13.0815  75       240      0.2      0                        
C-82             RG10             J-378            2.128    50       151      0.6      0                        
C-83             RG10             C-82             1.4889   50       123      0.5      0                        
C-84             RG10             J-378            1.1877   75       104      0.5      0                        
C-85             RG10             J-974            3.5384   25       97       0.7      0                        
C-86             RG10             J-974            2.3607   25       95       0.2      0                        
C-87             RG10             C-51             9.2168   25       217      0.5      0                        
C-88             RG10             J-424            15.8954  75       300      0.6      0                        
C-89             RG10             J-500            3.7865   25       123      0.8      0                        
C-90             RG10             C-98             1.0224   75       74       0.2      0                        
C-91             RG10             J-509            6.0511   75       187      0.6      0                        
C-92             RG10             J-500            4.1624   75       179      0.7      0                        
C-93             RG10             J-441            10.9189  75       179      0.1      0                        
C-94             RG10             C-97             3.9608   50       267      0.3      0                        
C-95             RG10             J-820            8.527    50       104      0.5      0                        
C-96             RG10             J-860            2.2843   25       181      0.6      0                        
C-97             RG10             J-840            4.3305   50       183      0.6      0                        
C-98             RG10             C-94             7.6007   50       272      0.3      0                        
C-99             RG10             J-906            5.9994   25       233      0.7      0                        
C-100            RG10             J-424            0.381    75       76       0.6      0                        
C-101            RG10             C-102            1.194    75       81       0.3      0                        
C-102            RG10             C-103            1.3661   75       82       0.7      0                        
C-103            RG10             J-917            2.1161   50       87       0.7      0                        
SC10             RG10             J-76             9.0946   40       340      0.4      0                        
SC20             RG10             SC30             8.2054   40       300      0.5      0                        
SC30             RG10             J-35             6.4781   40       230      0.4      0                        
SC40             RG10             J-22             7.4946   40       240      0.8      0                        
SC50             RG10             J-890            6.20     5        250      0.4      0                        
SC55             RG10             J-896            6.21     25       250      0.5      0                        
SC60             RG10             J-886            16.2445  50       300      0.4      0                        

[SUBAREAS]
;;Subcatchment   N-Imperv   N-Perv     S-Imperv   S-Perv     PctZero    RouteTo    PctRouted 
;;-------------- ---------- ---------- ---------- ---------- ---------- ---------- ----------
C-1              0.015      0.1        2          4          25         OUTLET    
C-2              0.015      0.1        2          4          25         OUTLET    
C-3              0.015      0.1        2          4          25         OUTLET    
C-4              0.015      0.1        2          4          25         OUTLET    
C-5              0.015      0.1        2          4          25         OUTLET    
C-6              0.015      0.1        2          4          25         OUTLET    
C-7              0.015      0.1        2          4          25         OUTLET    
C-8              0.015      0.1        2          4          25         OUTLET    
C-9              0.015      0.1        2          4          25         OUTLET    
C-10             0.015      0.1        2          4          25         OUTLET    
C-11             0.015      0.1        2          4          25         OUTLET    
C-12             0.015      0.1        2          4          25         OUTLET    
C-13             0.015      0.1        2          4          25         OUTLET    
C-14             0.015      0.1        2          4          25         OUTLET    
C-15             0.015      0.1        2          4          25         OUTLET    
C-16             0.015      0.1        2          4          25         OUTLET    
C-17             0.015      0.1        2          4          25         OUTLET    
C-18             0.015      0.1        2          4          25         OUTLET    
C-19             0.015      0.1        2          4          25         OUTLET    
C-20             0.015      0.1        2          4          25         OUTLET    
C-21             0.015      0.1        2          4          25         OUTLET    
C-22             0.015      0.1        2          4          25         OUTLET    
C-23             0.015      0.1        2          4          25         OUTLET    
C-24             0.015      0.1        2          4          25         OUTLET    
C-25             0.015      0.1        2          4          25         OUTLET    
C-26             0.015      0.1        2          4          25         OUTLET    
C-27             0.015      0.1        2          4          25         OUTLET    
C-28             0.015      0.1        2          4          25         OUTLET    
C-29             0.015      0.1        2          4          25         OUTLET    
C-30             0.015      0.1        2          4          25         OUTLET    
C-31             0.015      0.1        2          4          25         OUTLET    
C-32             0.015      0.1        2          4          25         OUTLET    
C-33             0.015      0.1        2          4          25         OUTLET    
C-34             0.015      0.1        2          4          25         OUTLET    
C-35             0.015      0.1        2          4          25         OUTLET    
C-36             0.015      0.1        2          4          25         OUTLET    
C-37             0.015      0.1        2          4          25         OUTLET    
C-38             0.015      0.1        2          4          25         OUTLET    
C-39             0.015      0.1        2          4          25         OUTLET    
C-40             0.015      0.1        2          4          25         OUTLET    
C-41             0.015      0.1        2          4          25         OUTLET    
C-42             0.015      0.1        2          4          25         OUTLET    
C-43             0.015      0.1        2          4          25         OUTLET    
C-44             0.015      0.1        2          4          25         OUTLET    
C-45             0.015      0.1        2          4          25         OUTLET    
C-46             0.015      0.1        2          4          25         OUTLET    
C-47             0.015      0.1        2          4          25         OUTLET    
C-48             0.015      0.1        2          4          25         OUTLET    
C-49             0.015      0.1        2          4          25         OUTLET    
C-50             0.015      0.1        2          4          25         OUTLET    
C-51             0.015      0.1        2          4          25         OUTLET    
C-52             0.015      0.1        2          4          25         OUTLET    
C-53             0.015      0.1        2          4          25         OUTLET    
C-54             0.015      0.1        2          4          25         OUTLET    
C-55             0.015      0.1        2          4          25         OUTLET    
C-56             0.015      0.1        2          4          25         OUTLET    
C-57             0.015      0.1        2          4          25         OUTLET    
C-58             0.015      0.1        2          4          25         OUTLET    
C-59             0.015      0.1        2          4          25         OUTLET    
C-60             0.015      0.1        2          4          25         OUTLET    
C-61             0.015      0.1        2          4          25         OUTLET    
C-62             0.015      0.1        2          4          25         OUTLET    
C-63             0.015      0.1        2          4          25         OUTLET    
C-64             0.015      0.1        2          4          25         OUTLET    
C-65             0.015      0.1        2          4          25         OUTLET    
C-66             0.015      0.1        2          4          25         OUTLET    
C-67             0.015      0.1        2          4          25         OUTLET    
C-68             0.015      0.1        2          4          25         OUTLET    
C-69             0.015      0.1        2          4          25         OUTLET    
C-70             0.015      0.1        2          4          25         OUTLET    
C-71             0.015      0.1        2          4          25         OUTLET    
C-72             0.015      0.1        2          4          25         OUTLET    
C-73             0.015      0.1        2          4          25         OUTLET    
C-74             0.015      0.1        2          4          25         OUTLET    
C-75             0.015      0.1        2          4          25         OUTLET    
C-76             0.015      0.1        2          4          25         OUTLET    
C-77             0.015      0.1        2          4          25         OUTLET    
C-78             0.015      0.1        2          4          25         OUTLET    
C-79             0.015      0.1        2          4          25         OUTLET    
C-80             0.015      0.1        2          4          25         OUTLET    
C-81             0.015      0.1        2          4          25         OUTLET    
C-82             0.015      0.1        2          4          25         OUTLET    
C-83             0.015      0.1        2          4          25         OUTLET    
C-84             0.015      0.1        2          4          25         OUTLET    
C-85             0.015      0.1        2          4          25         OUTLET    
C-86             0.015      0.1        2          4          25         OUTLET    
C-87             0.015      0.1        2          4          25         OUTLET    
C-88             0.015      0.1        2          4          25         OUTLET    
C-89             0.015      0.1        2          4          25         OUTLET    
C-90             0.015      0.1        2          4          25         OUTLET    
C-91             0.015      0.1        2          4          25         OUTLET    
C-92             0.015      0.1        2          4          25         OUTLET    
C-93             0.015      0.1        2          4          25         OUTLET    
C-94             0.015      0.1        2          4          25         OUTLET    
C-95             0.015      0.1        2          4          25         OUTLET    
C-96             0.015      0.1        2          4          25         OUTLET    
C-97             0.015      0.1        2          4          25         OUTLET    
C-98             0.015      0.1        2          4          25         OUTLET    
C-99             0.015      0.1        2          4          25         OUTLET    
C-100            0.015      0.1        2          4          25         OUTLET    
C-101            0.015      0.1        2          4          25         OUTLET    
C-102            0.015      0.1        2          4          25         OUTLET    
C-103            0.015      0.1        2          4          25         OUTLET    
SC10             0.015      0.1        2          4          25         OUTLET    
SC20             0.015      0.1        2          4          25         OUTLET    
SC30             0.015      0.1        2          4          25         OUTLET    
SC40             0.015      0.1        2          4          25         OUTLET    
SC50             0.015      0.1        2          4          25         OUTLET    
SC55             0.015      0.1        2          4          25         OUTLET    
SC60             0.015      0.1        2          4          25         OUTLET    

[INFILTRATION]
;;Subcatchment   Param1     Param2     Param3     Param4     Param5    
;;-------------- ---------- ---------- ---------- ---------- ----------
C-1              73         2.59       4          7          0         
C-2              73         2.59       4          7          0         
C-3              73         2.59       4          7          0         
C-4              73         2.59       4          7          0         
C-5              73         2.59       4          7          0         
C-6              73         2.59       4          7          0         
C-7              73         2.59       4          7          0         
C-8              73         2.59       4          7          0         
C-9              73         2.59       4          7          0         
C-10             73         2.59       4          7          0         
C-11             73         2.59       4          7          0         
C-12             73         2.59       4          7          0         
C-13             73         2.59       4          7          0         
C-14             73         2.59       4          7          0         
C-15             73         2.59       4          7          0         
C-16             73         2.59       4          7          0         
C-17             73         2.59       4          7          0         
C-18             73         2.59       4          7          0         
C-19             73         2.59       4          7          0         
C-20             73         2.59       4          7          0         
C-21             73         2.59       4          7          0         
C-22             73         2.59       4          7          0         
C-23             73         2.59       4          7          0         
C-24             73         2.59       4          7          0         
C-25             73         2.59       4          7          0         
C-26             73         2.59       4          7          0         
C-27             73         2.59       4          7          0         
C-28             73         2.59       4          7          0         
C-29             73         2.59       4          7          0         
C-30             73         2.59       4          7          0         
C-31             73         2.59       4          7          0         
C-32             73         2.59       4          7          0         
C-33             73         2.59       4          7          0         
C-34             73         2.59       4          7          0         
C-35             73         2.59       4          7          0         
C-36             73         2.59       4          7          0         
C-37             73         2.59       4          7          0         
C-38             73         2.59       4          7          0         
C-39             73         2.59       4          7          0         
C-40             73         2.59       4          7          0         
C-41             73         2.59       4          7          0         
C-42             73         2.59       4          7          0         
C-43             73         2.59       4          7          0         
C-44             73         2.59       4          7          0         
C-45             73         2.59       4          7          0         
C-46             73         2.59       4          7          0         
C-47             73         2.59       4          7          0         
C-48             73         2.59       4          7          0         
C-49             73         2.59       4          7          0         
C-50             73         2.59       4          7          0         
C-51             73         2.59       4          7          0         
C-52             73         2.59       4          7          0         
C-53             73         2.59       4          7          0         
C-54             73         2.59       4          7          0         
C-55             73         2.59       4          7          0         
C-56             73         2.59       4          7          0         
C-57             73         2.59       4          7          0         
C-58             73         2.59       4          7          0         
C-59             73         2.59       4          7          0         
C-60             73         2.59       4          7          0         
C-61             73         2.59       4          7          0         
C-62             73         2.59       4          7          0         
C-63             73         2.59       4          7          0         
C-64             73         2.59       4          7          0         
C-65             73         2.59       4          7          0         
C-66             73         2.59       4          7          0         
C-67             73         2.59       4          7          0         
C-68             73         2.59       4          7          0         
C-69             73         2.59       4          7          0         
C-70             73         2.59       4          7          0         
C-71             73         2.59       4          7          0         
C-72             73         2.59       4          7          0         
C-73             73         2.59       4          7          0         
C-74             73         2.59       4          7          0         
C-75             73         2.59       4          7          0         
C-76             73         2.59       4          7          0         
C-77             73         2.59       4          7          0         
C-78             73         2.59       4          7          0         
C-79             73         2.59       4          7          0         
C-80             73         2.59       4          7          0         
C-81             73         2.59       4          7          0         
C-82             73         2.59       4          7          0         
C-83             73         2.59       4          7          0         
C-84             73         2.59       4          7          0         
C-85             73         2.59       4          7          0         