[TITLE]
;;Project Title/Notes

[OPTIONS]
;;Option             Value
FLOW_UNITS           MGD
INFILTRATION         GREEN_AMPT
FLOW_ROUTING         DYNWAVE
LINK_OFFSETS         DEPTH
MIN_SLOPE            0
ALLOW_PONDING        NO
SKIP_STEADY_STATE    NO

START_DATE           01/01/2020
START_TIME           00:00:00
REPORT_START_DATE    01/01/2020
REPORT_START_TIME    00:00:00
END_DATE             01/06/2020
END_TIME             00:00:00
SWEEP_START          01/01
SWEEP_END            12/31
DRY_DAYS             0.000000
REPORT_STEP          00:01:00
WET_STEP             00:01:00
DRY_STEP             01:00:00
ROUTING_STEP         0:00:10 
RULE_STEP            00:00:00

INERTIAL_DAMPING     NONE
NORMAL_FLOW_LIMITED  BOTH
FORCE_MAIN_EQUATION  H-W
VARIABLE_STEP        0.50
LENGTHENING_STEP     0
MIN_SURFAREA         12.566000
MAX_TRIALS           4
HEAD_TOLERANCE       0.005000
SYS_FLOW_TOL         5
LAT_FLOW_TOL         5
MINIMUM_STEP         0.500000
THREADS              1

[EVAPORATION]
;;Data Source    Parameters
;;-------------- ----------------
CONSTANT         0.600000
DRY_ONLY         NO

[RAINGAGES]
;;Name           Format    Interval SCF      Source    
;;-------------- --------- ------ ------ ----------
G1               INTENSITY 0.016667 1.000000 TIMESERIES MYSTORM         
G2               INTENSITY 0.016667 1.000000 TIMESERIES MYSTORM         
G3               INTENSITY 0.016667 1.000000 TIMESERIES MYSTORM         

[SUBCATCHMENTS]
;;Name           Rain Gage        Outlet           Area     %Imperv  Width    %Slope   CurbLen  SnowPack        
;;-------------- ---------------- ---------------- -------- -------- -------- -------- -------- ----------------
S1               G1               N45              1.000000 10.000000 100.000000 1.000000 0.000000                 
S2               G1               N46              1.000000 10.000000 100.000000 1.000000 0.000000                 
S3               G1               N28              1.000000 10.000000 100.000000 1.000000 0.000000                 
S4               G1               N29              1.000000 10.000000 100.000000 1.000000 0.000000                 
S5               G1               N30              1.000000 10.000000 100.000000 1.000000 0.000000                 
S6               G1               N31              1.000000 10.000000 100.000000 1.000000 0.000000                 

[SUBAREAS]
;;Subcatchment   N-Imperv   N-Perv     S-Imperv   S-Perv     PctZero    RouteTo    PctRouted 
;;-------------- ---------- ---------- ---------- ---------- ---------- ---------- ----------
S1               0.015000   0.020000   0.050000   0.250000   25.000000  OUTLET    
S2               0.015000   0.020000   0.050000   0.250000   25.000000  OUTLET    
S3               0.015000   0.020000   0.050000   0.250000   25.000000  OUTLET    
S4               0.015000   0.020000   0.050000   0.250000   25.000000  OUTLET    
S5               0.015000   0.020000   0.050000   0.250000   25.000000  OUTLET    
S6               0.015000   0.020000   0.050000   0.250000   25.000000  OUTLET    

[INFILTRATION]
;;Subcatchment   Suction    Ksat       IMD       
;;-------------- ---------- ---------- ----------
S1               5.000000   0.500000   0.400000  
S2               5.000000   0.500000   0.400000  
S3               5.000000   0.500000   0.400000  
S4               5.000000   0.500000   0.400000  
S5               5.000000   0.500000   0.400000  
S6               5.000000   0.500000   0.400000  

[LID_CONTROLS]
;;Name           Type/Layer Parameters
;;-------------- ---------- ----------
RB               RB
RB               STORAGE    48.000000  0.750000   0.000000   0.000000  
RB               DRAIN      1.000000   0.500000   6.000000   6.000000   0.000000   0.000000             

RG               RG
RG               SURFACE    12.000000  0.100000   0.100000   1.000000   5.000000  
RG               SOIL       12.000000  0.500000   0.200000   0.100000   0.500000   10.000000  3.500000  
RG               STORAGE    0.000000   0.750000   1.000000   0.000000  

[LID_USAGE]
;;Subcatchment   LID Process      Number  Area       Width      InitSat    FromImp    ToPerv     RptFile                  DrainTo          FromPerv  
;;-------------- ---------------- ------- ---------- ---------- ---------- ---------- ---------- ------------------------ ---------------- ----------
S1               RB               10      12.000000  1.000000   1.000000   1.000000   1          *                        *                0.000000        
S1               RG               10      100.000000 10.000000  1.000000   1.000000   1          *                        *                1.000000        
S2               RB               10      12.000000  1.000000   1.000000   1.000000   1          *                        *                0.000000        
S2               RG               10      100.000000 10.000000  1.000000   1.000000   1          *                        *                1.000000        
S3               RB               10      12.000000  1.000000   1.000000   1.000000   1          *                        *                0.000000        
S3               RG               10      100.000000 10.000000  1.000000   1.000000   1          *                        *                1.000000        
S4               RB               10      12.000000  1.000000   1.000000   1.000000   1          *                        *                0.000000        
S4               RG               10      100.000000 10.000000  1.000000   1.000000   1          *                        *                1.000000        
S5               RB               10      12.000000  1.000000   1.000000   1.000000   1          *                        *                0.000000        
S5               RG               10      100.000000 10.000000  1.000000   1.000000   1          *                        *                1.000000        
S6               RB               10      12.000000  1.000000   1.000000   1.000000   1          *                        *                0.000000        
S6               RG               10      100.000000 10.000000  1.000000   1.000000   1          *                        *                1.000000        

[JUNCTIONS]
;;Name           Elevation  MaxDepth   InitDepth  SurDepth   Aponded   
;;-------------- ---------- ---------- ---------- ---------- ----------
N1               101.600000 9.400000   0.000000   0.000000   0.000000  
N10              102.000000 18.000000  0.000000   0.000000   0.000000  
N11              102.000000 18.000000  0.000000   0.000000   0.000000  
N12              102.000000 18.000000  0.000000   0.000000   0.000000  
N13              102.000000 18.000000  0.000000   0.000000   0.000000  
N14              102.800000 22.200000  0.000000   0.000000   0.000000  
N15              102.800000 22.200000  0.000000   0.000000   0.000000  
N16              102.800000 22.200000  0.000000   0.000000   0.000000  
N17              102.800000 22.200000  0.000000   0.000000   0.000000  
N18              102.800000 22.200000  0.000000   0.000000   0.000000  
N19              102.800000 22.200000  0.000000   0.000000   0.000000  
N2               111.500000 13.500000  0.000000   0.000000   0.000000  
; JUNCTION DATA
N20              124.600000 13.400000  0.000000   0.000000   0.000000  
; 2nd network or extran example 2
N21              124.600000 13.400000  0.000000   0.000000   0.000000  
; 3rd network or extran example 3
N22              124.600000 13.400000  0.000000   0.000000   0.000000  
; 4th network or extran example 4
N23              124.600000 13.400000  0.000000   0.000000   0.000000  
; 5th network or extran example 5
N24              124.600000 13.400000  0.000000   0.000000   0.000000  
; 6th network or extran example 7
N25              124.600000 13.400000  0.000000   0.000000   0.000000  
N26              118.300000 16.700000  0.000000   0.000000   0.000000  
N27              118.300000 16.700000  0.000000   0.000000   0.000000  
N28              118.300000 16.700000  0.000000   0.000000   0.000000  
N29              118.300000 16.700000  0.000000   0.000000   0.000000  
N3               111.500000 13.500000  0.000000   0.000000   0.000000  
N30              118.300000 16.700000  0.000000   0.000000   0.000000  
N31              118.300000 16.700000  0.000000   0.000000   0.000000  
N32              128.200000 8.800000   0.000000   0.000000   0.000000  
N33              128.200000 8.800000   0.000000   0.000000   0.000000  
N34              128.200000 8.800000   0.000000   0.000000   0.000000  
N35              128.200000 8.800000   0.000000   0.000000   0.000000  
N36              128.200000 8.800000   0.000000   0.000000   0.000000  
N37              128.200000 8.800000   0.000000   0.000000   0.000000  
N38              117.500000 12.500000  0.000000   0.000000   0.000000  
N39              117.500000 12.500000  0.000000   0.000000   0.000000  
N4               111.500000 13.500000  0.000000   0.000000   0.000000  
N40              117.500000 12.500000  0.000000   0.000000   0.000000  
N41              117.500000 12.500000  0.000000   0.000000   0.000000  
N42              117.500000 12.500000  0.000000   0.000000   0.000000  
N43              117.500000 12.500000  0.000000   0.000000   0.000000  
N44              112.300000 42.700000  0.000000   0.000000   0.000000  
N45              112.300000 42.700000  0.000000   0.000000   0.000000  
N46              112.300000 42.700000  0.000000   0.000000   0.000000  
N47              112.300000 42.700000  0.000000   0.000000   0.000000  
N48              112.300000 42.700000  0.000000   0.000000   0.000000  
N49              112.300000 42.700000  0.000000   0.000000   0.000000  
N5               111.500000 13.500000  0.000000   0.000000   0.000000  
N50              101.600000 9.400000   0.000000   0.000000   0.000000  
N51              101.600000 9.400000   0.000000   0.000000   0.000000  
N52              101.600000 9.400000   0.000000   0.000000   0.000000  
N53              101.600000 9.400000   0.000000   0.000000   0.000000  
N54              101.600000 9.400000   0.000000   0.000000   0.000000  
N6               111.500000 13.500000  0.000000   0.000000   0.000000  
N7               111.500000 13.500000  0.000000   0.000000   0.000000  
N8               102.000000 18.000000  0.000000   0.000000   0.000000  
N9               102.000000 18.000000  0.000000   0.000000   0.000000  

[OUTFALLS]
;;Name           Elevation  Type       Stage Data       Gated    Route To        
;;-------------- ---------- ---------- ---------------- -------- ----------------
O1               89.900000  FREE                        NO                       
O2               89.900000  FIXED      94.400000        YES                      
O3               89.900000  FREE                        NO                       
O4               89.900000  FREE                        NO                       
O5               89.900000  FREE                        NO                       
O6               89.900000  FREE                        NO                       

[STORAGE]
;;Name           Elev.    MaxDepth   InitDepth  Shape      Curve Name/Params            N/A      Fevap    Psi      Ksat     IMD     
;;-------------- -------- ---------- ----------- ---------- ---------------------------- -------- --------          -------- --------
W1               112.300000 42.700000  0.000000   FUNCTIONAL 800.000000  0.000000  0.000000 0.000000 0.000000

[CONDUITS]
;;Name           From Node        To Node          Length     Roughness  InOffset   OutOffset  InitFlow   MaxFlow   
;;-------------- ---------------- ---------------- ---------- ---------- ---------- ---------- ---------- ----------
C1               N50              O1               4500.000000 0.016000   0.000000   0.000000   0.000000   0.000000  
C10              N5               N11              100.000000 0.015400   0.000000   0.000000   0.000000   0.000000  
C11              N6               N12              5000.000000 0.015400   0.000000   0.000000   0.000000   0.000000  
C12              N7               N13              5000.000000 0.015400   0.000000   0.000000   0.000000   0.000000  
C13              N8               N14              500.000000 0.015000   0.000000   0.000000   0.000000   0.000000  
C14              N9               N15              500.000000 0.015000   0.000000   0.000000   0.000000   0.000000  
C15              N10              N16              500.000000 0.015000   0.000000   0.000000   0.000000   0.000000  
C16              N11              N17              500.000000 0.015000   0.000000   0.000000   0.000000   0.000000  
C17              N12              N18              500.000000 0.015000   0.000000   0.000000   0.000000   0.000000  
C18              N13              N19              500.000000 0.015000   0.000000   0.000000   0.000000   0.000000  
C19              N45              N14              5000.000000 0.034000   0.000000   0.000000   0.000000   0.000000  
C2               N51              O2               4500.000000 0.016000   0.000000   0.000000   0.000000   0.000000  
C20              N46              N15              5000.000000 0.034000   0.000000   0.000000   0.000000   0.000000  
C21              N47              N16              5000.000000 0.034000   0.000000   0.000000   0.000000   0.000000  
C22              N48              N17              5000.000000 0.034000   0.000000   0.000000   0.000000   0.000000  
C23              W1               N18              5000.000000 0.034000   0.000000   0.000000   0.000000   0.000000  
C24              N49              N19              5000.000000 0.034000   0.000000   0.000000   0.000000   0.000000  
C25              N8               N50              300.000000 0.015000   0.000000   0.000000   0.000000   0.000000  
C26              N9               N51              300.000000 0.015000   0.000000   0.000000   0.000000   0.000000  
C27              N10              N52              300.000000 0.015000   0.000000   0.000000   0.000000   0.000000  
C28              N11              N53              300.000000 0.015000   0.000000   0.000000   0.000000   0.000000  
C29              N12              N54              300.000000 0.015000   0.000000   0.000000   0.000000   0.000000  
C3               N52              O3               4500.000000 0.016000   0.000000   0.000000   0.000000   0.000000  
C30              N13              N1               300.000000 0.015000   0.000000   0.000000   0.000000   0.000000  
C31              N20              N26              1800.000000 0.015000   0.000000   0.000000   0.000000   0.000000  
; 2nd network or extran example 2
C32              N21              N27              1800.000000 0.015000   0.000000   0.000000   0.000000   0.000000  
; 3rd network or extran example 3
C33              N22              N28              1800.000000 0.015000   0.000000   0.000000   0.000000   0.000000  
; 4th network or extran example 4
C34              N23              N29              1800.000000 0.015000   0.000000   0.000000   0.000000   0.000000  
; 5th network or extran example 5
C35              N24              N30              1800.000000 0.015000   0.000000   0.000000   0.000000   0.000000  
; 6th network or extran example 7
C36              N25              N31              1800.000000 0.015000   0.000000   0.000000   0.000000   0.000000  
C37              N26              N45              2075.000000 0.015000   0.000000   114.500000 0.000000   0.000000  
C38              N27              N46              2075.000000 0.015000   0.000000   114.500000 0.000000   0.000000  
C39              N28              N47              2075.000000 0.015000   0.000000   114.500000 0.000000   0.000000  
C4               N53              O4               4500.000000 0.016000   0.000000   0.000000   0.000000   0.000000  
C40              N29              N48              2075.000000 0.015000   0.000000   114.500000 0.000000   0.000000  
C41              N30              W1               2075.000000 0.015000   0.000000   114.500000 0.000000   0.000000  
C42              N31              N49              2075.000000 0.015000   0.000000   114.500000 0.000000   0.000000  
C43              N32              N38              5100.000000 0.015000   0.000000   0.000000   0.000000   0.000000  
C44              N33              N39              5100.000000 0.015000   0.000000   0.000000   0.000000   0.000000  
C45              N34              N40              5100.000000 0.015000   0.000000   0.000000   0.000000   0.000000  
C46              N35              N41              5100.000000 0.015000   0.000000   0.000000   0.000000   0.000000  
C47              N36              N42              5100.000000 0.015000   0.000000   0.000000   0.000000   0.000000  
C48              N37              N43              5100.000000 0.015000   0.000000   0.000000   0.000000   0.000000  
C49              N38              N2               3500.000000 0.015000   0.000000   0.000000   0.000000   0.000000  
C5               N54              O5               4500.000000 0.016000   0.000000   0.000000   0.000000   0.000000  
C50              N39              N3               3500.000000 0.015000   0.000000   0.000000   0.000000   0.000000  
C51              N40              N4               3500.000000 0.015000   0.000000   0.000000   0.000000   0.000000  
C52              N41              N5               3500.000000 0.015000   0.000000   0.000000   0.000000   0.000000  
C53              N42              N6               3500.000000 0.015000   0.000000   0.000000   0.000000   0.000000  
C54              N43              N7               3500.000000 0.015000   0.000000   0.000000   0.000000   0.000000  
C6               N1               O6               4500.000000 0.016000   0.000000   0.000000   0.000000   0.000000  
C7               N2               N8               5000.000000 0.015400   0.000000   0.000000   0.000000   0.000000  
C8               N3               N9               5000.000000 0.015400   0.000000   0.000000   0.000000   0.000000  
C9               N4               N10              5000.000000 0.015400   0.000000   0.000000   0.000000   0.000000  

[PUMPS]
;;Name           From Node        To Node          Pump Curve       Status   Sartup Shutoff 
;;-------------- ---------------- ---------------- ---------------- ------ -------- --------
P1               N49              N7               PUMPCURVEFORPUMP1@82309E-15009E OFF      0.000000 0.000000

[ORIFICES]
;;Name           From Node        To Node          Type         Offset     Qcoeff     Gated    CloseTime 
;;-------------- ---------------- ---------------- ------------ ---------- ---------- -------- ----------
OR1@82309D-82308D W1               N44              SIDE         0.000000   0.850000   NO       0         
ORF1             N47              N4               BOTTOM       0.000000   0.850000   NO       0         

[WEIRS]
;;Name           From Node        To Node          Type         CrestHt    Qcoeff     Gated    EndCon   EndCoeff   Surcharge  RoadWidth  RoadSurf   Coeff. Curve
;;-------------- ---------------- ---------------- ------------ ---------- ---------- -------- -------- ---------- ---------- ---------- ---------- ----------------
W1               N48              N5               V-NOTCH      0.000000   3.300000   NO       0        0.000000   YES       

[XSECTIONS]
;;Link           Shape        Geom1            Geom2      Geom3      Geom4      Barrels    Culvert   
;;-------------- ------------ ---------------- ---------- ---------- ---------- ---------- ----------
C1               TRIANGULAR   9.000000         54.000000  0.000000   0.000000   1          0         
C10              CIRCULAR     5.500000         0.000000   0.000000   0.000000   1          0         
C11              CIRCULAR     5.500000         0.000000   0.000000   0.000000   1          0         
C12              CIRCULAR     5.500000         0.000000   0.000000   0.000000   1          0         
C13              CIRCULAR     6.000000         0.000000   0.000000   0.000000   1          0         
C14              CIRCULAR     6.000000         0.000000   0.000000   0.000000   1          0         
C15              CIRCULAR     6.000000         0.000000   0.000000   0.000000   1          0         
C16              CIRCULAR     6.000000         0.000000   0.000000   0.000000   1          0         
C17              CIRCULAR     6.000000         0.000000   0.000000   0.000000   1          0         
C18              CIRCULAR     6.000000         0.000000   0.000000   0.000000   1          0         
C19              CIRCULAR     5.000000         0.000000   0.000000   0.000000   1          0         
C2               TRIANGULAR   9.000000         54.000000  0.000000   0.000000   1          0         
C20              CIRCULAR     5.000000         0.000000   0.000000   0.000000   1          0         
C21              CIRCULAR     5.000000         0.000000   0.000000   0.000000   1          0         
C22              CIRCULAR     5.000000         0.000000   0.000000   0.000000   1          0         
C23              CIRCULAR     5.000000         0.000000   0.000000   0.000000   1          0         
C24              CIRCULAR     5.000000         0.000000   0.000000   0.000000   1          0         
C25              TRIANGULAR   9.000000         54.000000  0.000000   0.000000   1          0         
C26              TRIANGULAR   9.000000         54.000000  0.000000   0.000000   1          0         
C27              TRIANGULAR   9.000000         54.000000  0.000000   0.000000   1          0         
C28              TRIANGULAR   9.000000         54.000000  0.000000   0.000000   1          0         
C29              TRIANGULAR   9.000000         54.000000  0.000000   0.000000   1          0         
C3               TRIANGULAR   9.000000         54.000000  0.000000   0.000000   1          0         
C30              TRIANGULAR   9.000000         54.000000  0.000000   0.000000   1          0         
C31              CIRCULAR     4.000000         0.000000   0.000000   0.000000   1          0         
C32              CIRCULAR     4.000000         0.000000   0.000000   0.000000   1          0         
C33              CIRCULAR     4.000000         0.000000   0.000000   0.000000   1          0         
C34              CIRCULAR     4.000000         0.000000   0.000000   0.000000   1          0         
C35              CIRCULAR     4.000000         0.000000   0.000000   0.000000   1          0         
C36              CIRCULAR     4.000000         0.000000   0.000000   0.000000   1          0         
C37              CIRCULAR     4.000000         0.000000   0.000000   0.000000   1          0         
C38              CIRCULAR     4.000000         0.000000   0.000000   0.000000   1          0         
C39              CIRCULAR     4.000000         0.000000   0.000000   0.000000   1          0         
C4               TRIANGULAR   9.000000         54.000000  0.000000   0.000000   1          0         
C40              CIRCULAR     4.000000         0.000000   0.000000   0.000000   1          0         
C41              CIRCULAR     4.000000         0.000000   0.000000   0.000000   1          0         
C42              CIRCULAR     4.000000         0.000000   0.000000   0.000000   1          0         
C43              CIRCULAR     4.500000         0.000000   0.000000   0.000000   1          0         
C44              CIRCULAR     4.500000         0.000000   0.000000   0.000000   1          0         
C45              CIRCULAR     4.500000         0.000000   0.000000   0.000000   1          0         
C46              CIRCULAR     4.500000         0.000000   0.000000   0.000000   1          0         
C47              CIRCULAR     4.500000         0.000000   0.000000   0.000000   1          0         
C48              CIRCULAR     4.500000         0.000000   0.000000   0.000000   1          0         
C49              CIRCULAR     4.500000         0.000000   0.000000   0.000000   1          0         
C5               TRIANGULAR   9.000000         54.000000  0.000000   0.000000   1          0         
C50              CIRCULAR     4.500000         0.000000   0.000000   0.000000   1          0         
C51              CIRCULAR     4.500000         0.000000   0.000000   0.000000   1          0         
C52              CIRCULAR     4.500000         0.000000   0.000000   0.000000   1          0         
C53              CIRCULAR     4.500000         0.000000   0.000000   0.000000   1          0         
C54              CIRCULAR     4.500000         0.000000   0.000000   0.000000   1          0         
C6               TRIANGULAR   9.000000         54.000000  0.000000   0.000000   1          0         
C7               CIRCULAR     5.500000         0.000000   0.000000   0.000000   1          0         
C8               CIRCULAR     5.500000         0.000000   0.000000   0.000000   1          0         
C9               CIRCULAR     5.500000         0.000000   0.000000   0.000000   1          0         
OR1@82309D-82308D CIRCULAR     2.000000         0          0          0
ORF1             CIRCULAR     1.000000         0          0          0
W1               TRIANGULAR   1.000000         1.000000   0.000000   0.000000  

[LOSSES]
;;Link           Kentry     Kexit      Kavg       Flap Gate  Seepage   
;;-------------- ---------- ---------- ---------- ---------- ----------
C1               0.000000   0.000000   0.000000   NO         0.000000  
C10              0.000000   0.000000   0.000000   NO         0.000000  
C11              0.000000   0.000000   0.000000   NO         0.000000  
C12              0.000000   0.000000   0.000000   NO         0.000000  
C13              0.000000   0.000000   0.000000   NO         0.000000  
C14              0.000000   0.000000   0.000000   NO         0.000000  
C15              0.000000   0.000000   0.000000   NO         0.000000  
C16              0.000000   0.000000   0.000000   NO         0.000000  
C17              0.000000   0.000000   0.000000   NO         0.000000  
C18              0.000000   0.000000   0.000000   NO         0.000000  
C19              0.000000   0.000000   0.000000   NO         0.000000  
C2               0.000000   0.000000   0.000000   NO         0.000000  
C20              0.000000   0.000000   0.000000   NO         0.000000  
C21              0.000000   0.000000   0.000000   NO         0.000000  
C22              0.000000   0.000000   0.000000   NO         0.000000  
C23              0.000000   0.000000   0.000000   NO         0.000000  
C24              0.000000   0.000000   0.000000   NO         0.000000  
C25              0.000000   0.000000   0.000000   NO         0.000000  
C26              0.000000   0.000000   0.000000   NO         0.000000  
C27              0.000000   0.000000   0.000000   NO         0.000000  
C28              0.000000   0.000000   0.000000   NO         0.000000  
C29              0.000000   0.000000   0.000000   NO         0.000000  
C3               0.000000   0.000000   0.000000   NO         0.000000  
C30              0.000000   0.000000   0.000000   NO         0.000000  
C31              0.000000   0.000000   0.000000   NO         0.000000  
C32              0.000000   0.000000   0.000000   NO         0.000000  
C33              0.000000   0.000000   0.000000   NO         0.000000  
C34              0.000000   0.000000   0.000000   NO         0.000000  
C35              0.000000   0.000000   0.000000   NO         0.000000  
C36              0.000000   0.000000   0.000000   NO         0.000000  
C37              0.000000   0.000000   0.000000   NO         0.000000  
C38              0.000000   0.000000   0.000000   NO         0.000000  
C39              0.000000   0.000000   0.000000   NO         0.000000  
C4               0.000000   0.000000   0.000000   NO         0.000000  
C40              0.000000   0.000000   0.000000   NO         0.000000  
C41              0.000000   0.000000   0.000000   NO         0.000000  
C42              0.000000   0.000000   0.000000   NO         0.000000  
C43              0.000000   0.000000   0.000000   NO         0.000000  
C44              0.000000   0.000000   0.000000   NO         0.000000  
C45              0.000000   0.000000   0.000000   NO         0.000000  
C46              0.000000   0.000000   0.000000   NO         0.000000  
C47              0.000000   0.000000   0.000000   NO         0.000000  
C48              0.000000   0.000000   0.000000   NO         0.000000  
C49              0.000000   0.000000   0.000000   NO         0.000000  
C5               0.000000   0.000000   0.000000   NO         0.000000  
C50              0.000000   0.000000   0.000000   NO         0.000000  
C51              0.000000   0.000000   0.000000   NO         0.000000  
C52              0.000000   0.000000   0.000000   NO         0.000000  
C53              0.000000   0.000000   0.000000   NO         0.000000  
C54              0.000000   0.000000   0.000000   NO         0.000000  
C6               0.000000   0.000000   0.000000   NO         0.000000  
C7               0.000000   0.000000   0.000000   NO         0.000000  
C8               0.000000   0.000000   0.000000   NO         0.000000  
C9               0.000000   0.000000   0.000000   NO         0.000000  

[CONTROLS]






[INFLOWS]