;; SWMM5 .inp converted from XPSWMM .xp file
;; Generated by XPSWMM Card Reader
;; Source format: XP_CARD | Original title: FALL RIVER - CDM Proposed Tunnel, modified from fr53a33%.dat

[TITLE]
;;Project Title/Notes
FALL RIVER - CDM Proposed Tunnel, modified from fr53a33%.dat

[OPTIONS]
FLOW_UNITS           CFS
INFILTRATION         HORTON
FLOW_ROUTING         DYNWAVE
LINK_OFFSETS         DEPTH
MIN_SLOPE            0.0
ALLOW_PONDING        NO
SKIP_STEADY_STATE    NO
ROUTING_STEP         00:00:01
VARIABLE_STEP        0.75
INERTIAL_DAMPING     PARTIAL
NORMAL_FLOW_LIMITED  BOTH
MAX_TRIALS           50
HEAD_TOLERANCE       0.0033

[JUNCTIONS]
;;Name           Elev       MaxDepth   InitDepth  SurDepth   Aponded
;;-------------- ---------- ---------- ---------- ---------- ----------
401              10.00      0          0          0          0
301              24.05      0          0          0          0
132              22.18      0          0          0          0
101              55.50      0          0          0          0
204              27.26      0          0          0          0
611              20.09      0          0          0          0
706              20.00      0          0          0          0
104              74.00      0          0          0          0
403              7.00       0          0          0          0
303              24.44      0          0          0          0
103              54.30      0          0          0          0
133              25.20      0          0          0          0
402              6.00       0          0          0          0
302              17.10      0          0          0          0
704              17.00      0          0          0          0
608              20.06      0          0          0          0
610              42.00      0          0          0          0
404              22.00      0          0          0          0
inlet-I&Q        129.28     0          0          0          0
907              129.48     0          0          0          0
624              131.48     0          0          0          0
315              131.31     0          0          0          0
906              130.88     0          0          0          0
621              130.38     0          0          0          0
inlet-G2         163.20     0          0          0          0
314              136.80     0          0          0          0
214              153.00     0          0          0          0
inlet-G1         175.00     0          0          0          0
313              134.80     0          0          0          0
213              144.40     0          0          0          0
G2sanitary       158.60     0          0          0          0
inlet-K1&3       149.00     0          0          0          0
415              139.58     0          0          0          0
903              143.00     0          0          0          0
901              144.00     0          0          0          0
inlet-K2         170.60     0          0          0          0
902              150.00     0          0          0          0
215              152.60     0          0          0          0
inlet-J1         151.80     0          0          0          0
420              135.40     0          0          0          0
417              136.70     0          0          0          0
217              141.77     0          0          0          0
317              135.56     0          0          0          0
418              138.33     0          0          0          0
218              141.60     0          0          0          0
318              138.33     0          0          0          0
419              142.00     0          0          0          0
219              144.21     0          0          0          0
319              143.75     0          0          0          0
inlet-J3         173.50     0          0          0          0
inlet-J2         178.40     0          0          0          0
inlet-Z          134.90     0          0          0          0
216              140.00     0          0          0          0
416              138.60     0          0          0          0
316              137.75     0          0          0          0
626              136.40     0          0          0          0
309              5.59       0          0          0          0
209              5.70       0          0          0          0
109              9.00       0          0          0          0
615              62.91      0          0          0          0
616              33.31      0          0          0          0
618              40.73      0          0          0          0
307              10.37      0          0          0          0
604              3.77       0          0          0          0
702              1.45       0          0          0          0
207              39.90      0          0          0          0
211              92.10      0          0          0          0
inlet-cent       108.00     0          0          0          0
112              85.00      0          0          0          0
633              129.99     0          0          0          0
627              126.08     0          0          0          0
628              134.00     0          0          0          0
629              157.37     0          0          0          0
630              133.30     0          0          0          0
inlet-H          154.00     0          0          0          0
620              132.18     0          0          0          0
120              31.92      0          0          0          0
601              38.50      0          0          0          0
110              19.50      0          0          0          0
310              16.88      0          0          0          0
210              16.60      0          0          0          0
410              5.00       0          0          0          0
308              10.80      0          0          0          0
208              10.50      0          0          0          0
409              12.51      0          0          0          0
782              10.00      0          0          0          0
108              27.50      0          0          0          0
131              8.32       0          0          0          0
126              19.68      0          0          0          0
125              3.00       0          0          0          0
127              11.01      0          0          0          0
106              54.77      0          0          0          0
406              3.75       0          0          0          0
473              9.12       0          0          0          0
476              7.63       0          0          0          0
478              11.94      0          0          0          0
481              21.12      0          0          0          0
483              21.99      0          0          0          0
486              35.00      0          0          0          0
488              22.07      0          0          0          0
493              8.01       0          0          0          0
495              14.79      0          0          0          0
497              11.64      0          0          0          0
499n             17.05      0          0          0          0
501n             24.99      0          0          0          0
503n             23.00      0          0          0          0
505n             27.82      0          0          0          0
507n             24.60      0          0          0          0
511n             39.30      0          0          0          0
513n             28.00      0          0          0          0
515n             31.27      0          0          0          0
517n             21.85      0          0          0          0
520n             21.17      0          0          0          0
522n             24.20      0          0          0          0
525n             18.15      0          0          0          0
527n             21.40      0          0          0          0
529n             29.48      0          0          0          0
536n             120.70     0          0          0          0
539n             131.28     0          0          0          0
544n             133.78     0          0          0          0
546n             127.56     0          0          0          0
548n             130.28     0          0          0          0
550n             131.18     0          0          0          0
553n             126.46     0          0          0          0
568n             130.28     0          0          0          0
571n             135.00     0          0          0          0
573n             135.00     0          0          0          0
575n             134.90     0          0          0          0
578n             143.20     0          0          0          0
611w             20.09      0          0          0          0
608w             20.06      0          0          0          0
604w             5.10       0          0          0          0
208w             10.50      0          0          0          0
210w             16.60      0          0          0          0
612n             160.63     0          0          0          0
615n             143.00     0          0          0          0
617n             138.50     0          0          0          0
623n             145.50     0          0          0          0
415a             137.41     0          0          0          0
415c             139.00     0          0          0          0
643n             9.30       0          0          0          0
647n             11.50      0          0          0          0
649n             8.70       0          0          0          0
656n             132.00     0          0          0          0
658n             131.50     0          0          0          0
660n             130.00     0          0          0          0
665n             106.00     0          0          0          0
674n             106.50     0          0          0          0
681n             102.00     0          0          0          0
682n             66.00      0          0          0          0
685n             93.00      0          0          0          0
688n             117.00     0          0          0          0
700n             90.00      0          0          0          0
702n             33.16      0          0          0          0
703n             26.00      0          0          0          0
707n             8.00       0          0          0          0
716n             43.50      0          0          0          0
718n             26.00      0          0          0          0
730n             15.50      0          0          0          0
743n             60.55      0          0          0          0
745n             35.22      0          0          0          0
749n             86.50      0          0          0          0
751n             62.30      0          0          0          0
753n             140.00     0          0          0          0
754n             72.00      0          0          0          0
756n             27.00      0          0          0          0
759n             74.00      0          0          0          0
761n             32.63      0          0          0          0
inlet-mthp       114.00     0          0          0          0
inlet-wood       118.00     0          0          0          0
inlet-birc       136.00     0          0          0          0
inlet-glob       115.00     0          0          0          0
771n             136.00     0          0          0          0
773n             100.00     0          0          0          0
775n             68.93      0          0          0          0
inlet-stew       137.00     0          0          0          0
780n             45.75      0          0          0          0
782n             57.00      0          0          0          0
inlet-herm       96.00      0          0          0          0
792n             102.00     0          0          0          0
794n             85.00      0          0          0          0
796n             50.50      0          0          0          0
inlet-clmb       108.00     0          0          0          0
801n             40.29      0          0          0          0
803n             38.82      0          0          0          0
805N             72.02      0          0          0          0
807n             133.00     0          0          0          0
inlet-nmai       169.92     0          0          0          0
TN5              150.00     0          0          0          0
TN10             150.00     0          0          0          0
TN20             150.00     0          0          0          0
TN15             150.00     0          0          0          0
TN25             150.00     0          0          0          0
TN45             150.00     0          0          0          0
TN35             150.00     0          0          0          0
TN70             150.00     0          0          0          0
TN65             150.00     0          0          0          0
TN60             150.00     0          0          0          0
TN55             150.00     0          0          0          0
TN50             150.00     0          0          0          0
inlet-midd       148.40     0          0          0          0
1000N            144.20     0          0          0          0
TN90             150.00     0          0          0          0
TN85             150.00     0          0          0          0
TN80             150.00     0          0          0          0
TN75             150.00     0          0          0          0
873N             33.00      0          0          0          0
874N             24.50      0          0          0          0
TN105            150.00     0          0          0          0
885N             105.00     0          0          0          0
inlet-elm        114.00     0          0          0          0
TN110            150.00     0          0          0          0
TN130            150.00     0          0          0          0
TN125            150.00     0          0          0          0
TN120            150.00     0          0          0          0
TN115            150.00     0          0          0          0
TN150            150.00     0          0          0          0
TN145            150.00     0          0          0          0
TN140            150.00     0          0          0          0
TN135            150.00     0          0          0          0
TN155            150.00     0          0          0          0
inlet-pres       113.00     0          0          0          0
TN170            200.00     0          0          0          0
TN165            200.00     0          0          0          0
TN190            200.00     0          0          0          0
TN180            200.00     0          0          0          0
inlet-lang       152.79     0          0          0          0
LANG-DS          90.15      0          0          0          0
inlet-jone       144.23     0          0          0          0
DS-JONES         96.56      0          0          0          0
TN210            200.00     0          0          0          0
TN205            200.00     0          0          0          0
TN200            200.00     0          0          0          0
TN195            200.00     0          0          0          0
TN250            200.00     0          0          0          0
TN240            200.00     0          0          0          0
TN230            200.00     0          0          0          0
TN220            200.00     0          0          0          0
TN305            200.00     0          0          0          0
TN300            200.00     0          0          0          0
TN310            200.00     0          0          0          0
TN320            200.00     0          0          0          0
TN325            200.00     0          0          0          0
TN335            200.00     0          0          0          0
TN360            200.00     0          0          0          0
TN355            200.00     0          0          0          0
TN350            200.00     0          0          0          0
TN345            200.00     0          0          0          0
TN340            200.00     0          0          0          0
1030n            140.00     0          0          0          0
1032             134.00     0          0          0          0
1034N            134.00     0          0          0          0
1036N            134.00     0          0          0          0
1046             27.22      0          0          0          0
1048             135.00     0          0          0          0
1055             136.44     0          0          0          0
1069             141.37     0          0          0          0
1102n            124.80     0          0          0          0
1104             105.70     0          0          0          0
203w             36.20      0          0          0          0
206w             30.61      0          0          0          0
128hb            26.18      0          0          0          0
102n             66.40      0          0          0          0
1125             134.50     0          0          0          0
1135             135.00     0          0          0          0
1139n            22.00      0          0          0          0
788n             92.10      0          0          0          0
790n             34.41      0          0          0          0
407              34.00      0          0          0          0
1156             10.00      0          0          0          0
1173             0          0          0          0          0

[STORAGE]
;;Name           Elev       MaxDepth   InitDepth  Shape      Curve/Params
;;-------------- ---------- ---------- ---------- ---------- ----------
500              40.00      -21.00     0          FUNCTIONAL 16000.00 0          0
201              22.18      0          0          FUNCTIONAL 100.00 0          0
613              23.06      -1.11      0          FUNCTIONAL 200.00 0          0
134              27.26      0          0          FUNCTIONAL 100.00 0          0
304              31.36      -11.36     0          FUNCTIONAL 200.00 0          0
203              36.20      0          0          FUNCTIONAL 100.00 0          0
102              65.00      0          0          FUNCTIONAL 64.00 0          0
202              48.00      -22.80     0          FUNCTIONAL 100.00 0          0
607              24.38      -7.38      0          FUNCTIONAL 220.00 0          0
206              30.61      0          0          FUNCTIONAL 100.00 0          0
306              30.65      0          0          FUNCTIONAL 200.00 0          0
712              13.50      0          0          FUNCTIONAL 250.00 0          0
606              21.41      -1.41      0          FUNCTIONAL 200.00 0          0
135              21.95      10.05      0          FUNCTIONAL 200.00 0          0
inlet-L3&4       136.74     0          0          FUNCTIONAL 400.00 0          0
inlet-J4         150.37     -0.37      0          FUNCTIONAL 100.00 0          0
617              26.99      0          0          FUNCTIONAL 100.00 0          0
605              22.41      0          0          FUNCTIONAL 400.00 0          0
619              110.98     0          0          FUNCTIONAL 75.00 0          0
121              7.00       -1.10      0          FUNCTIONAL 238.75 0          0
123              6.00       0          0          FUNCTIONAL 400.00 0          0
124              4.80       0          0          FUNCTIONAL 500.00 0          0
129              33.00      -4.10      0          FUNCTIONAL 400.00 0          0
130              26.18      -0.28      0          FUNCTIONAL 200.00 0          0
128              26.18      -0.28      0          FUNCTIONAL 200.00 0          0
122a             4.80       0          0          FUNCTIONAL 100.00 0          0
122c             4.80       0          0          FUNCTIONAL 980.00 0          0
720n             8.00       0          0          FUNCTIONAL 100.00 0          0
Swift            150.00     -55.00     0          FUNCTIONAL 113.89 0          0
MtHope           96.00      0          0          FUNCTIONAL 19.63 0          0
BIRCH            124.50     0          0          FUNCTIONAL 19.63 0          0
GLOBE            105.00     0          0          FUNCTIONAL 19.63 0          0
MIDDLE           145.00     0          0          FUNCTIONAL 12.57 0          0
COLUMBIA         92.00      0          0          FUNCTIONAL 12.57 0          0
SPRING           123.00     0          0          FUNCTIONAL 50.27 0          0
CENTRAL          107.80     -2.80      0          FUNCTIONAL 19.64 0          0
ELM              100.00     0          0          FUNCTIONAL 19.63 0          0
NMAIN            82.00      0          0          FUNCTIONAL 19.63 0          0
PRESIDENT        103.20     0          0          FUNCTIONAL 12.57 0          0
STEWART          106.00     0          0          FUNCTIONAL 12.57 0          0
JONES            120.00     0          0          FUNCTIONAL 12.57 0          0
LANGLEY          137.50     0          0          FUNCTIONAL 12.57 0          0
HERMAN           86.00      0          0          FUNCTIONAL 12.57 0          0
HIGHLAND         157.00     0          0          FUNCTIONAL 490.87 0          0
THIRD            128.00     0          0          FUNCTIONAL 12.57 0          0
PLEASANT         132.00     0          0          FUNCTIONAL 12.57 0          0
PLY-N            135.00     0          0          FUNCTIONAL 19.63 0          0
LOWELL           135.00     0          0          FUNCTIONAL 12.57 0          0
QUEQUECHAN       142.00     0          0          FUNCTIONAL 19.63 0          0
121ps            7.00       -1.10      0          FUNCTIONAL 200.00 0          0

[CONDUITS]
;;Name           From             To               Length     Roughness  InOffset   OutOffset  InitFlow   MaxFlow
;;-------------- ---------------- ---------------- ---------- ---------- ---------- ---------- ---------- ----------
560              307              605              660.00     0.0080     -6.81      -15.00     0          0
511              604              307              173.00     0.0150     -6.49      -6.81      0          0
513              308              309              571.00     0.0150     -2.99      -3.37      0          0
26               210              310              22.00      0.0150     1.75       0.37       0          0
25               110              210              697.00     0.0150     8.80       2.58       0          0
32               885N             211              218.00     0.0140     99.00      86.30      0          0
17               207              307              358.00     0.0150     24.80      5.52       0          0
30               211              112              419.05     0.0150     86.30      76.25      0          0
22               109              209              190.00     0.0150     0.78       -0.36      0          0
23               209              309              10.00      0.0150     -0.36      -2.12      0          0
19               108              208              600.00     0.0150     8.00       1.24       0          0
20               208              308              10.00      0.0150     1.24       -1.74      0          0
781              409              782              638.46     0.0140     -3.43      -6.27      0          0
550              803n             601              374.20     0.0150     22.40      18.60      0          0
553              124              125              325.00     0.0150     -4.25      -9.58      0          0
554              126              495              335.90     0.0150     -3.38      -4.43      0          0
555              127              499n             536.30     0.0150     -1.11      -2.25      0          0
556              Node_556         Node_1115503     388.00     0.0150     2.60       1.63       0          0
557              129              128              1100.00    0.0150     9.21       2.80       0          0
558              130              131              1234.00    0.0150     2.80       -5.12      0          0
35               G2sanitary       213              509.00     0.0120     132.80     129.51     0          0
37               ?                Node_10481001    1095.42    0.0150     123.58     123.00     0          0
540              313              314              894.00     0.0140     125.30     124.43     0          0
39               214              1030n            175.00     0.0150     141.85     128.69     0          0
38               inlet-G1         214              202.00     0.0150     167.63     143.17     0          0
538              inlet-H          630              480.00     0.0140     138.67     122.50     0          0
537              630              628              464.00     0.0150     122.50     120.48     0          0
536              629              628              425.00     0.0140     148.07     118.86     0          0
535              628              THIRD            373.00     0.0140     118.86     115.24     0          0
542              627              633              422.00     0.0150     115.28     110.30     0          0
534              633              619              26.00      0.0140     110.30     106.87     0          0
41               inlet-K2         215              831.47     0.0150     159.64     139.00     0          0
527              315              624              82.77      0.0150     124.93     124.84     0          0
1033N            inlet-Z          1032             571.00     0.0150     122.54     121.98     0          0
529              626              inlet-Z          518.17     0.0150     125.65     123.02     0          0
523              621              546n             766.00     0.0150     116.75     116.14     0          0
522              620              1102n            520.00     0.0150     111.12     110.37     0          0
809              906              621              282.00     0.0100     123.35     121.68     0          0
528              inlet-L3&4       315              465.67     0.0150     126.32     124.93     0          0
800              inlet-K1&3       901              717.57     0.0150     134.14     132.79     0          0
53               inlet-J4         219              241.60     0.0150     138.42     133.85     0          0
54               219              319              18.73      0.0150     133.85     133.28     0          0
56               419              418              137.00     0.0150     131.17     128.18     0          0
533              319              318              244.75     0.0150     133.28     129.26     0          0
50               inlet-J3         218              661.00     0.0150     163.64     133.83     0          0
57               418              417              243.78     0.0100     128.18     126.37     0          0
532              318              317              237.38     0.0140     129.26     127.86     0          0
810              907              553n             752.00     0.0150     117.40     116.95     0          0
47               inlet-J2         217              699.39     0.0150     168.27     132.00     0          0
48               217              317              680.00     0.0150     132.00     127.86     0          0
58               417              420              233.76     0.0100     126.37     124.45     0          0
531              317              626              487.00     0.0150     127.86     125.50     0          0
44               inlet-J1         216              646.00     0.0150     139.53     132.75     0          0
45               216              316              351.00     0.0120     132.75     128.39     0          0
59               416              420              396.33     0.0120     128.86     124.45     0          0
530              316              626              175.00     0.0140     128.39     125.50     0          0
521              619              805N             640.00     0.0150     104.38     66.72      0          0
509              606              306              328.00     0.0150     12.58      12.26      0          0
508              306              607              915.00     0.0150     12.26      11.73      0          0
507              607              608              570.00     0.0150     11.77      11.25      0          0
503              302              611              630.00     0.0150     7.44       7.12       0          0
501              301              500              890.00     0.0150     6.00       5.00       0          0
2                201              301              160.00     0.0150     11.10      9.50       0          0
1                101              201              974.20     0.0150     39.66      12.10      0          0
5n               202              1139n            594.00     0.0150     40.90      11.72      0          0
3                132              401              523.11     0.0150     12.10      -5.00      0          0
6                133              402              288.52     0.0150     14.42      -3.46      0          0
8                203              303              100.00     0.0150     12.04      11.79      0          0
7                103              203              694.00     0.0150     45.90      14.04      0          0
9                ?                Node_1110217     158.00     0.0150     14.04      0          0          0
11               204              304              20.00      0.0150     15.01      13.54      0          0