;; SWMM5 .inp converted from XPSWMM .xp file
;; Generated by XPSWMM Card Reader
;; Source format: XP_CARD | Original title: Rapid Run - Clearview Sewer Analysis

[TITLE]
;;Project Title/Notes
Rapid Run - Clearview Sewer Analysis

[OPTIONS]
FLOW_UNITS           CFS
INFILTRATION         HORTON
FLOW_ROUTING         DYNWAVE
LINK_OFFSETS         DEPTH
MIN_SLOPE            0.0
ALLOW_PONDING        NO
SKIP_STEADY_STATE    NO
ROUTING_STEP         00:00:05
VARIABLE_STEP        0.75
INERTIAL_DAMPING     PARTIAL
NORMAL_FLOW_LIMITED  BOTH
MAX_TRIALS           30
HEAD_TOLERANCE       0.0033

[JUNCTIONS]
;;Name           Elev       MaxDepth   InitDepth  SurDepth   Aponded
;;-------------- ---------- ---------- ---------- ---------- ----------
5                844.95     0          0          0          0
10               846.24     0          0          0          0
15               837.57     0          0          0          0
20               833.44     0          0          0          0
25               830.31     0          0          0          0
30               829.53     0          0          0          0
35               829.02     0          0          0          0
40               824.95     0          0          0          0
45               827.85     0          0          0          0
50               820.90     0          0          0          0
55               867.46     0          0          0          0
60               858.09     0          0          0          0
65               840.36     0          0          0          0
70               879.50     0          0          0          0
75               876.87     0          0          0          0
80               868.06     0          0          0          0
85               859.99     0          0          0          0
90               853.07     0          0          0          0
95               841.93     0          0          0          0
100              831.50     0          0          0          0
105              849.07     0          0          0          0
110              844.75     0          0          0          0
115              839.43     0          0          0          0
120              834.38     0          0          0          0
125              897.91     0          0          0          0
130              895.53     0          0          0          0
135              892.72     0          0          0          0
140              888.38     0          0          0          0
145              888.68     0          0          0          0
150              876.95     0          0          0          0
155              861.51     0          0          0          0
160              849.62     0          0          0          0
180              883.68     0          0          0          0
185              866.26     0          0          0          0
190              918.58     0          0          0          0
195              920.24     0          0          0          0
200              916.45     0          0          0          0
205              910.13     0          0          0          0
210              904.51     0          0          0          0
215              900.63     0          0          0          0
220              897.63     0          0          0          0
225              895.00     0          0          0          0
230              892.00     0          0          0          0
235              882.50     0          0          0          0
240              871.85     0          0          0          0
245              861.39     0          0          0          0
250              849.80     0          0          0          0
255              884.25     0          0          0          0
260              877.28     0          0          0          0
o1               892.89     0          0          0          0
265              882.32     0          0          0          0
270              883.26     0          0          0          0
275              886.37     0          0          0          0
w5               915.24     0          0          0          0
w10              912.00     0          0          0          0
w15              908.13     0          0          0          0
w20              904.48     0          0          0          0
w25              901.19     0          0          0          0
w30              898.82     0          0          0          0
w35              894.24     0          0          0          0
w40              881.31     0          0          0          0
w45              875.34     0          0          0          0
w50              864.86     0          0          0          0
w55              866.06     0          0          0          0
w60              864.41     0          0          0          0
-99.4026         850.13     0          0          0          0
w70              848.62     0          0          0          0
w75              896.11     0          0          0          0
w80              898.99     0          0          0          0
w85              893.94     0          0          0          0
w90              896.21     0          0          0          0
w95              872.33     0          0          0          0
o5               893.93     0          0          0          0
o10              891.63     0          0          0          0
x5               869.69     0          0          0          0
x10              861.37     0          0          0          0
x15              861.16     0          0          0          0
x20              859.78     0          0          0          0
x25              855.98     0          0          0          0
x30              849.06     0          0          0          0
x40              865.46     0          0          0          0
x45              862.73     0          0          0          0
x50              878.11     0          0          0          0
x55              866.66     0          0          0          0
l5               894.37     0          0          0          0
l10              883.20     0          0          0          0
l15              867.87     0          0          0          0
l20              872.51     0          0          0          0
l25              860.95     0          0          0          0
l30              912.34     0          0          0          0
l35              909.66     0          0          0          0
l40              895.44     0          0          0          0
l45              881.17     0          0          0          0
l50              917.42     0          0          0          0
l55              915.13     0          0          0          0
l60              914.11     0          0          0          0
l65              915.34     0          0          0          0
l70              906.38     0          0          0          0
l75              898.77     0          0          0          0
l80              884.18     0          0          0          0
l85              875.61     0          0          0          0
l90              864.20     0          0          0          0
l93              911.03     0          0          0          0
l96              916.07     0          0          0          0
l2               881.01     0          0          0          0
g5               914.22     0          0          0          0
g10              911.84     0          0          0          0
g15              904.04     0          0          0          0
g20              888.37     0          0          0          0
g25              882.36     0          0          0          0
g30              876.00     0          0          0          0
g35              867.75     0          0          0          0
g40              890.71     0          0          0          0
g45              913.39     0          0          0          0
g50              912.72     0          0          0          0
g55              912.08     0          0          0          0
g60              911.81     0          0          0          0
g65              911.25     0          0          0          0
g70              912.05     0          0          0          0
g75              914.18     0          0          0          0
o20              909.85     0          0          0          0
o25              896.35     0          0          0          0
o30              891.50     0          0          0          0
o35              886.29     0          0          0          0
o40              915.03     0          0          0          0
o45              913.80     0          0          0          0
o50              912.07     0          0          0          0
s0               876.17     0          0          0          0
s5               867.23     0          0          0          0
s10              864.04     0          0          0          0
s15              856.97     0          0          0          0
s20              848.74     0          0          0          0
s25              835.40     0          0          0          0
s35              859.50     0          0          0          0
s40              855.74     0          0          0          0
s45              847.53     0          0          0          0
s50              845.19     0          0          0          0
s55              838.25     0          0          0          0
s60              845.00     0          0          0          0
s30              851.73     0          0          0          0
x60              815.82     0          0          0          0
x65              816.04     0          0          0          0
x70              816.00     0          0          0          0

[STORAGE]
;;Name           Elev       MaxDepth   InitDepth  Shape      Curve/Params
;;-------------- ---------- ---------- ---------- ---------- ----------
o3               883.18     0          0          FUNCTIONAL 100000.00 0          0

[CONDUITS]
;;Name           From             To               Length     Roughness  InOffset   OutOffset  InitFlow   MaxFlow
;;-------------- ---------------- ---------------- ---------- ---------- ---------- ---------- ---------- ----------
6                5                10               170.00     0.0130     835.90     832.36     0          0
11               10               15               223.70     0.0130     832.36     828.19     0          0
16               15               20               228.70     0.0130     828.19     823.73     0          0
21               20               25               228.70     0.0130     823.73     819.29     0          0
26               25               30               58.60      0.0130     819.29     818.18     0          0
31               30               35               59.72      0.0130     818.18     816.99     0          0
36               35               40               91.16      0.0130     816.99     815.21     0          0
41               40               45               160.20     0.0130     815.21     812.15     0          0
46               45               50               49.50      0.0130     812.15     811.42     0          0
56               55               60               186.76     0.0130     858.69     849.12     0          0
61               60               65               203.46     0.0130     849.12     835.15     0          0
66               65               30               231.79     0.0130     835.15     820.30     0          0
71               70               75               84.79      0.0130     873.45     870.75     0          0
76               75               80               109.07     0.0130     870.75     861.92     0          0
81               80               85               112.04     0.0130     861.92     852.90     0          0
86               85               90               152.77     0.0130     852.83     846.90     0          0
91               90               95               164.34     0.0130     846.90     834.85     0          0
96               95               100              165.32     0.0130     834.85     823.09     0          0
101              100              30               39.27      0.0130     822.86     820.09     0          0
106              105              110              139.79     0.0130     841.89     838.52     0          0
111              110              115              191.06     0.0130     838.52     833.48     0          0
116              115              120              197.12     0.0130     833.48     827.31     0          0
121              120              100              175.49     0.0130     827.28     823.26     0          0
126              125              130              114.08     0.0130     885.77     882.94     0          0
131              130              135              112.00     0.0130     882.94     880.03     0          0
136              135              140              164.90     0.0130     880.03     875.52     0          0
141              140              145              182.67     0.0130     867.35     865.40     0          0
146              145              150              183.50     0.0130     865.40     863.65     0          0
151              150              155              192.93     0.0130     863.47     850.20     0          0
156              155              160              188.50     0.0130     850.20     837.48     0          0
161              160              10               152.95     0.0130     837.26     833.65     0          0
181              180              185              279.65     0.0130     876.07     858.45     0          0
186              185              155              35.73      0.0130     858.45     850.20     0          0
191              190              195              216.08     0.0130     912.16     909.52     0          0
196              195              200              179.63     0.0130     909.52     907.38     0          0
201              200              205              165.72     0.0130     907.38     900.59     0          0
206              205              210              157.87     0.0130     900.59     894.25     0          0
211              210              215              176.51     0.0130     894.25     891.77     0          0
216              215              220              172.12     0.0130     891.77     889.43     0          0
221              220              225              178.18     0.0130     889.39     885.08     0          0
226              225              230              175.42     0.0130     885.08     882.75     0          0
231              230              235              183.72     0.0130     882.75     873.99     0          0
236              235              240              154.33     0.0130     873.99     864.43     0          0
241              240              245              154.45     0.0130     864.43     854.76     0          0
246              245              250              189.46     0.0130     854.76     841.86     0          0
251              250              10               152.88     0.0130     836.24     833.20     0          0
256              255              260              172.99     0.0130     876.93     870.04     0          0
o0               220              o1               176.69     0.0130     889.30     885.11     0          0
o2               o1               o3               121.95     0.0130     884.72     873.45     0          0
261              260              245              250.14     0.0130     870.04     854.76     0          0
266              265              270              167.45     0.0130     871.32     869.86     0          0
271              270              275              170.30     0.0130     869.86     868.69     0          0
276              275              140              115.90     0.0130     868.69     867.45     0          0
w6               w5               w10              146.60     0.0130     903.73     899.72     0          0
w11              w10              w15              147.30     0.0130     899.72     896.00     0          0
w16              w15              w20              145.55     0.0130     896.00     892.12     0          0
w21              w20              w25              121.55     0.0130     892.12     888.92     0          0
w26              w25              w30              100.35     0.0130     888.92     886.40     0          0
w31              w30              w35              189.60     0.0130     886.40     881.42     0          0
w36              w35              w40              126.15     0.0130     880.44     874.36     0          0
w41              w40              w45              126.50     0.0130     874.36     868.37     0          0
w46              w45              w50              212.00     0.0130     868.37     858.34     0          0
w51              w50              w55              162.93     0.0130     858.16     852.48     0          0
w56              w55              w60              76.63      0.0130     852.48     849.89     0          0
w61              w60              -99.4026         150.52     0.0130     849.89     845.33     0          0
w66              -99.4026         w70              141.35     0.0130     845.33     840.81     0          0
w71              w70              5                125.65     0.0130     840.81     835.90     0          0
w74              125              w75              157.77     0.0130     885.77     883.71     0          0
w76              w75              w35              158.47     0.0130     883.71     881.42     0          0
w81              w80              w85              200.10     0.0130     887.11     882.18     0          0
w86              w85              w35              56.10      0.0130     881.66     880.44     0          0
w91              w90              w85              165.60     0.0130     884.00     882.18     0          0
w96              w95              w50              75.76      0.0130     861.49     858.16     0          0
o6               o5               o10              215.33     0.0130     884.05     881.15     0          0
o11              o10              w55              383.72     0.0130     880.93     852.48     0          0
x6               x5               x10              190.60     0.0130     856.51     853.12     0          0
x11              x10              x15              55.10      0.0130     853.12     852.12     0          0
x16              x15              x20              105.25     0.0130     852.12     850.19     0          0
x21              x20              x25              306.20     0.0130     850.19     845.58     0          0
x26              x25              x30              247.50     0.0130     844.26     839.97     0          0
x41              x40              x45              134.68     0.0130     857.03     853.61     0          0
x46              x45              x20              70.30      0.0130     853.61     850.19     0          0
x51              x50              x55              128.52     0.0130     870.58     857.50     0          0
x56              x55              x25              303.66     0.0130     857.50     846.88     0          0
x31              x30              5                225.40     0.0130     839.97     835.90     0          0
l6               l5               l10              176.30     0.0130     884.77     874.62     0          0
l11              l10              l15              249.32     0.0130     872.20     859.44     0          0
l16              l15              l20              299.20     0.0130     859.12     855.00     0          0
l21              l20              l25              306.78     0.0130     854.92     848.79     0          0
l26              l25              x25              230.44     0.0130     848.67     844.30     0          0
l31              l30              l35              156.70     0.0130     902.64     900.76     0          0
l36              l35              l40              211.85     0.0130     900.76     886.83     0          0
l41              l40              l45              201.20     0.0130     886.83     872.57     0          0
l46              l45              l25              224.90     0.0130     872.57     850.03     0          0
l51              l50              l55              193.95     0.0130     909.21     908.55     0          0
l56              l55              l60              209.67     0.0130     906.44     903.15     0          0
l61              l60              l65              124.61     0.0130     903.15     901.47     0          0
l66              l65              l70              178.91     0.0130     887.54     885.66     0          0
l71              l70              l75              180.89     0.0130     885.66     883.74     0          0
l76              l75              l80              180.75     0.0130     883.74     872.07     0          0
l81              l80              l85              110.23     0.0130     872.07     865.16     0          0
l86              l85              l90              150.76     0.0130     865.16     858.91     0          0
l91              l90              x15              134.00     0.0130     858.91     853.30     0          0
l94              l93              l65              180.28     0.0130     889.88     887.78     0          0
l97              l96              l65              74.07      0.0130     906.97     906.83     0          0
l3               l2               l10              145.30     0.0130     876.25     874.75     0          0
g4               w5               g5               192.50     0.0130     903.73     900.76     0          0
g6               g5               g10              190.20     0.0130     900.76     898.03     0          0
g11              g10              g15              194.25     0.0130     897.59     894.20     0          0
g16              g15              g20              196.55     0.0130     894.20     875.94     0          0
g21              g20              g25              78.20      0.0130     875.19     869.70     0          0
g26              g25              g30              70.50      0.0130     869.70     865.04     0          0
g31              g30              x5               109.65     0.0130     865.04     857.18     0          0
g36              g35              x5               135.05     0.0130     860.45     858.69     0          0
g41              g40              g25              350.00     0.0130     880.79     871.35     0          0
g46              g45              g50              113.75     0.0130     900.57     899.76     0          0
g51              g50              g55              128.00     0.0130     899.76     899.05     0          0
g56              g55              g60              103.30     0.0130     899.05     898.44     0          0
g61              g60              g10              97.15      0.0130     898.44     897.89     0          0
g66              g65              g70              87.00      0.0013     899.45     898.80     0          0
g71              g70              g10              55.45      0.0130     898.62     897.59     0          0
g76              g75              g70              196.50     0.0130     901.21     898.80     0          0
o21              o20              o25              244.66     0.0130     891.96     889.52     0          0
o26              o25              o30              173.18     0.0130     889.52     884.96     0          0
o31              o30              o35              172.71     0.0130     884.96     880.45     0          0
o36              o35              g20              211.20     0.0130     880.37     875.78     0          0
o41              o40              o45              150.22     0.0130     903.98     900.42     0          0
o46              o45              o35              295.57     0.0130     900.42     880.76     0          0
o51              o50              o45              198.82     0.0130     901.72     900.46     0          0
s1               s0               s5               271.35     0.0130     866.15     860.92     0          0
s6               s5               s10              211.10     0.0130     860.63     857.38     0          0
s11              s10              s15              146.65     0.0130     857.25     850.01     0          0
s16              s15              s20              150.30     0.0130     850.01     840.51     0          0
s21              s20              s25              253.70     0.0130     840.31     826.79     0          0
s26              s25              45               150.00     0.0130     826.79     813.69     0          0
s36              s35              s40              159.10     0.0130     855.28     845.90     0          0
s41              s40              s45              91.00      0.0130     845.90     840.25     0          0
s46              s45              s50              47.42      0.0130     840.25     838.50     0          0
s51              s50              s55              128.58     0.0130     838.50     833.37     0          0
s56              s55              s60              195.50     0.0130     833.37     825.59     0          0
s61              s60              40               147.20     0.0130     825.59     815.21     0          0
s31              s30              s20              139.75     0.0130     842.89     840.51     0          0
51               50               x60              210.60     0.0130     811.42     806.99     0          0
x61              x60              x65              79.23      0.0130     806.62     805.09     0          0
x66              x65              x70              118.01     0.0130     805.09     802.64     0          0

[XSECTIONS]
;;Link           Shape        Geom1      Geom2      Geom3      Geom4      Barrels
;;-------------- ------------ ---------- ---------- ---------- ---------- ----------
6                CIRCULAR     3.00       0          0          0          1
11               CIRCULAR     3.50       0          0          0          1
16               CIRCULAR     3.50       0          0          0          1
21               CIRCULAR     3.50       0          0          0          1
26               CIRCULAR     3.50       0          0          0          1
31               CIRCULAR     3.50       0          0          0          1
36               CIRCULAR     3.50       0          0          0          1
41               CIRCULAR     3.50       0          0          0          1
46               CIRCULAR     3.50       0          0          0          1
56               CIRCULAR     1.00       0          0          0          1
61               CIRCULAR     1.00       0          0          0          1
66               CIRCULAR     1.25       0          0          0          1
71               CIRCULAR     1.00       0          0          0          1
76               CIRCULAR     1.00       0          0          0          1
81               CIRCULAR     1.00       0          0          0          1
86               CIRCULAR     1.25       0          0          0          1
91               CIRCULAR     1.25       0          0          0          1
96               CIRCULAR     1.25       0          0          0          1
101              CIRCULAR     1.50       0          0          0          1
106              CIRCULAR     1.00       0          0          0          1
111              CIRCULAR     1.00       0          0          0          1
116              CIRCULAR     1.00       0          0          0          1
121              CIRCULAR     1.25       0          0          0          1
126              CIRCULAR     1.00       0          0          0          1
131              CIRCULAR     1.00       0          0          0          1
136              CIRCULAR     1.00       0          0          0          1
141              CIRCULAR     1.83       0          0          0          1
146              CIRCULAR     1.83       0          0          0          1
151              CIRCULAR     1.50       0          0          0          1
156              CIRCULAR     1.50       0          0          0          1
161              CIRCULAR     2.00       0          0          0          1
181              CIRCULAR     1.00       0          0          0          1
186              CIRCULAR     1.00       0          0          0          1
191              CIRCULAR     1.00       0          0          0          1
196              CIRCULAR     1.00       0          0          0          1
201              CIRCULAR     1.00       0          0          0          1
206              CIRCULAR     1.00       0          0          0          1
211              CIRCULAR     1.00       0          0          0          1
216              CIRCULAR     1.00       0          0          0          1
221              CIRCULAR     1.00       0          0          0          1
226              CIRCULAR     1.00       0          0          0          1
231              CIRCULAR     1.00       0          0          0          1
236              CIRCULAR     1.00       0          0          0          1
241              CIRCULAR     1.00       0          0          0          1
246              CIRCULAR     1.00       0          0          0          1
251              CIRCULAR     1.75       0          0          0          1
256              CIRCULAR     1.00       0          0          0          1
o0               CIRCULAR     1.00       0          0          0          1
o2               CIRCULAR     1.00       0          0          0          1
261              CIRCULAR     1.00       0          0          0          1
266              CIRCULAR     1.25       0          0          0          1