;; SWMM5 .inp converted from XPSWMM .xp file
;; Generated by XPSWMM Card Reader
;; Source format: XP_CARD | Original title: GERMANTOWN

[TITLE]
;;Project Title/Notes
GERMANTOWN

[OPTIONS]
FLOW_UNITS           CFS
INFILTRATION         HORTON
FLOW_ROUTING         DYNWAVE
LINK_OFFSETS         DEPTH
MIN_SLOPE            0.0
ALLOW_PONDING        NO
SKIP_STEADY_STATE    NO
ROUTING_STEP         00:00:03
VARIABLE_STEP        0.75
INERTIAL_DAMPING     NONE
NORMAL_FLOW_LIMITED  BOTH
MAX_TRIALS           30
HEAD_TOLERANCE       0.0033

[JUNCTIONS]
;;Name           Elev       MaxDepth   InitDepth  SurDepth   Aponded
;;-------------- ---------- ---------- ---------- ---------- ----------
08683            457.00     0          1.34       0          0
30457            454.00     0          2.38       0          0
11775            453.00     0          1.61       0          0
11773            458.50     0          1.98       0          0
11699            447.00     0          2.11       0          0
11768            457.00     0          2.08       0          0
11694            459.00     0          2.16       0          0
11693            458.50     0          2.16       0          0
11613            459.50     0          2.16       0          0
11614            453.00     0          2.26       0          0
11660            451.00     0          2.39       0          0
11661            451.00     0          2.40       0          0
11702            451.00     0          2.40       0          0
11704            465.00     0          2.40       0          0
71876            450.00     0          2.67       0          0
71875            452.00     0          2.64       0          0
71877            451.67     0          2.43       0          0
13465            451.80     0          2.18       0          0
08986A-D         453.50     0          2.08       0          0
66323            453.40     0          2.07       0          0
50279            451.90     0          1.99       0          0
50280            453.40     0          1.97       0          0
50281            455.80     0          1.84       0          0
091N6            460.90     0          0.06       0          0
78001            460.90     0          0.21       0          0
11817-T          466.90     0          0.17       0          0
78001-DO         454.00     0          0          0          0
09206a           454.20     0          0.99       0          0
09206            454.20     0          0.15       0          0
11696            454.20     0          0.06       0          0
71887-DO         444.00     0          0          0          0
11613a           462.22     0          0.41       0          0
11613b           462.22     0          0.63       0          0
08979            454.00     0          0.16       0          0
08979a           454.00     0          0.46       0          0
08977            460.00     0          0.19       0          0
08976            467.00     0          0.14       0          0
08969            477.00     0          0.16       0          0
71828            467.00     0          0.09       0          0
71817-DO         444.00     0          0          0          0
71817-DOa        454.00     0          0          0          0
11659            463.80     0          0.07       0          0
11659a           463.80     0          0.35       0          0
11620            469.70     0          0.19       0          0
71880-DO         448.00     0          0          0          0
112R6            456.00     0          1.41       0          0
112R6a           456.00     0          1.36       0          0
151R6-AG         459.00     0          0.27       0          0
30437-AG         451.11     0          0.25       0          0
69222            459.80     0          0.20       0          0
08975            473.90     0          0.18       0          0
08939            512.00     0          0.18       0          0
30437-DO         446.00     0          0          0          0
13468a           454.00     0          1.52       0          0
66333a           454.00     0          0.14       0          0
66333            454.00     0          0.09       0          0
13462            454.00     0          0.08       0          0
13461            462.51     0          0.11       0          0
13457            489.56     0          0.07       0          0
13468b           454.00     0          0.11       0          0
66325            474.40     0          0.15       0          0
08370            468.10     0          0.13       0          0
13461-DO         455.00     0          0          0          0
66332-DO         455.00     0          0          0          0
66332-DOa        454.00     0          0          0          0
08988a           452.00     0          0.68       0          0
08988b           452.00     0          0.15       0          0
08988            452.00     0          0.18       0          0
08992            451.67     0          0.14       0          0
08993            462.81     0          0.13       0          0
08994            462.81     0          0.05       0          0
08997            468.30     0          0.21       0          0
08988-DO         448.00     0          0          0          0
08988c           452.00     0          0          0          0
71909-XDO        450.00     0          0          0          0
08682-DR         469.00     0          0          0          0
08681-DR         462.00     0          0          0          0
08680-DR         463.00     0          0          0          0
71903-T          463.00     0          0          0          0
71898-D          464.00     0          0          0          0
71898-DR         464.00     0          0          0          0
71898B-S         461.50     0          0          0          0
71898A-S         466.00     0          0          0          0
11244            467.40     0          0          0          0
08662-S          468.50     0          0          0          0
08669            469.40     0          0          0          0
084M6B-S         470.20     0          0          0          0
185J6A           468.00     0          0          0          0
71903-DR         463.00     0          0          0          0
71898A-AG        464.25     0          0          0          0
174I6D           463.00     0          0          0          0
08656            454.89     0          0.39       0          0
08657            458.64     0          0.71       0          0
08654            455.48     0          0.48       0          0
11670            469.00     0          0          0          0
11668            469.00     0          0          0          0
71801            465.00     0          0          0          0
08681-DRa        465.00     0          0          0          0
08672a           472.87     0          0.23       0          0
08671            472.27     0          0.17       0          0
08671-X          473.00     0          0.17       0          0
08671-Xa         473.00     0          0.17       0          0
11777-DO         455.67     0          0          0          0
71910            455.67     0          0.18       0          0
11810            455.35     0          0.61       0          0
08653            458.47     0          0.66       0          0
71800            453.28     0          0.58       0          0
08341            455.08     0          0.56       0          0
11372            464.40     0          0.58       0          0
08652            453.67     0          0.55       0          0
08651            455.99     0          0.54       0          0
30460            456.44     0          0.54       0          0
23002            457.60     0          0.39       0          0
08342            457.75     0          0.35       0          0
08668            456.57     0          0.48       0          0
08343            458.88     0          0.42       0          0
08344            461.03     0          0.43       0          0
66344            461.90     0          0.47       0          0
08666            462.11     0          0.43       0          0
08665            463.42     0          0.37       0          0
50270            461.19     0          0.37       0          0
50270-T          464.27     0          0.39       0          0
23001            461.37     0          0.08       0          0
09000            465.66     0          0.05       0          0
08340            467.36     0          0          0          0
08658            463.30     0          0.40       0          0
08658-CB         463.30     0          0.36       0          0
08677            466.30     0          0.36       0          0
08676            468.30     0          0.36       0          0
08675            470.30     0          0.36       0          0
08674            471.30     0          0.31       0          0
08673a           472.30     0          0.50       0          0
08673            472.30     0          0.31       0          0
185J6Aa          469.00     0          0.16       0          0
08672            472.87     0          0.41       0          0
50292            475.16     0          0.25       0          0
50292-T          475.00     0          0.26       0          0
50293            475.30     0          0.14       0          0
50287            479.25     0          0.19       0          0
08333            479.25     0          0          0          0
11823            460.00     0          0          0          0
11777            460.00     0          0          0          0
71910-DO         460.00     0          0          0          0
30418            455.00     0          1.69       0          0
106Z6            456.10     0          1.64       0          0
30417            455.00     0          1.54       0          0
097V6            449.00     0          1.28       0          0
30414            449.50     0          1.21       0          0
75027            452.70     0          1.85       0          0
50316            452.90     0          1.84       0          0
50331            459.40     0          1.82       0          0
50332            458.90     0          2.00       0          0
50333            462.10     0          1.90       0          0
50334            454.51     0          1.90       0          0
50335            466.38     0          1.93       0          0
30303            456.55     0          1.91       0          0
109V6C           459.00     0          1.93       0          0
75019            460.45     0          1.95       0          0
75026            460.99     0          1.92       0          0
30328            458.24     0          1.90       0          0
30327            456.75     0          2.04       0          0
30325            459.54     0          1.98       0          0
30324            464.62     0          2.09       0          0
50494            457.39     0          2.02       0          0
50495            458.48     0          2.10       0          0
30301            459.03     0          2.17       0          0
108V6E           459.95     0          2.12       0          0
08960            459.43     0          2.10       0          0
51001            459.95     0          2.01       0          0
51002            458.84     0          1.99       0          0
51003            461.38     0          1.94       0          0
27295            461.11     0          1.93       0          0
27294            457.57     0          1.86       0          0
27293            459.18     0          1.93       0          0
27292            459.30     0          2.04       0          0
27290            459.67     0          1.81       0          0
51599            459.35     0          1.88       0          0
51601            459.77     0          1.85       0          0
27300            460.38     0          1.76       0          0
27299            460.11     0          1.79       0          0
27298            460.44     0          1.86       0          0
27297            460.67     0          1.95       0          0
27296            460.94     0          1.95       0          0
51612            461.00     0          1.98       0          0
72354            461.11     0          2.07       0          0
51619            461.50     0          2.08       0          0
51617            462.82     0          2.13       0          0
51618            461.29     0          2.09       0          0
72395            462.00     0          2.13       0          0
51137            461.98     0          2.13       0          0
51207            462.83     0          2.19       0          0
73168            463.62     0          2.10       0          0
16666            463.85     0          2.00       0          0
51146            463.44     0          1.90       0          0
51147            463.95     0          2.00       0          0
16762            464.04     0          1.99       0          0
51220            464.00     0          1.96       0          0
51222            464.31     0          1.87       0          0
51221            464.31     0          1.78       0          0
73165            465.23     0          1.75       0          0
51175            465.00     0          1.07       0          0
18C1Ba           461.50     0          0          0          0
08954            461.50     0          1.12       0          0
08954a           461.50     0          1.08       0          0
08954b           470.00     0          0          0          0
08954c           470.00     0          0          0          0
30323            461.50     0          0.83       0          0
75050            457.00     0          1.20       0          0
13472            457.20     0          1.17       0          0
75039            461.40     0          0.68       0          0
13473            461.10     0          0.71       0          0
08955            456.10     0          1.02       0          0
08957            457.20     0          1.05       0          0
50393            458.00     0          1.10       0          0
73228            456.10     0          1.06       0          0
50496            457.10     0          1.01       0          0
50497            457.20     0          1.06       0          0
50499            459.20     0          1.06       0          0
50500            458.80     0          1.01       0          0
50500a           458.80     0          1.01       0          0
50500b           459.95     0          0          0          0
50386-PSa        520.00     0          0.80       0          0
13473a           514.70     0          0.79       0          0
51004            462.60     0          0.98       0          0
23255            457.20     0          1.26       0          0
08962            458.30     0          1.01       0          0
23256a           459.40     0          1.09       0          0
23256            459.40     0          1.29       0          0
23257            461.30     0          1.14       0          0
23259            460.30     0          1.14       0          0
23260            459.90     0          1.35       0          0
23222            461.70     0          1.10       0          0
23218            461.93     0          1.47       0          0
23217            461.70     0          1.46       0          0
23215            463.60     0          1.43       0          0
23216            462.80     0          1.43       0          0
23248            466.80     0          1.58       0          0
23247            464.10     0          1.42       0          0
23246            462.80     0          1.38       0          0
23214            462.50     0          1.35       0          0
23249            463.30     0          1.14       0          0
23213            464.40     0          0.95       0          0
73165a           465.60     0          0.39       0          0
30435            456.00     0          0.07       0          0
75015            480.00     0          0.06       0          0
13411            477.90     0          0          0          0
65828-DO         445.00     0          0          0          0
65836-DO         445.00     0          0          0          0
137V6B           476.00     0          0.13       0          0
50324            478.00     0          0.08       0          0
50315            454.00     0          0          0          0
75064-DO         450.00     0          0          0          0
30302            459.51     0          1.26       0          0
30302a           459.51     0          0.17       0          0
75022            459.13     0          0.19       0          0
75025-DO         450.00     0          0          0          0
73226B-DO        458.00     0          0          0          0
73226A-DO        458.00     0          0          0          0
08959            460.00     0          2.00       0          0
08959a           461.00     0          0.48       0          0
51018            465.22     0          0.09       0          0
08441            466.33     0          0.15       0          0
08439            472.43     0          0.25       0          0
08436            490.45     0          0.24       0          0
08434            500.00     0          0.18       0          0
08432            504.00     0          0.19       0          0
13313            455.75     0          0          0          0
11622            455.65     0          0          0          0
71888            461.00     0          0          0          0
13323            457.48     0          0          0          0
11258            467.40     0          0          0          0
11249            471.24     0          0          0          0
08678            468.50     0          0          0          0
66346            465.70     0          0          0          0
50276            465.90     0          0          0          0
11267            467.33     0          0          0          0
11253            476.31     0          0          0          0
11254            474.70     0          0          0          0
11252            477.76     0          0          0          0
11255            471.11     0          0          0          0
11256            469.41     0          0          0          0
11330            468.13     0          0          0          0
66345            468.97     0          0          0          0
50283            471.22     0          0          0          0
11210            485.46     0          0          0          0
50284            483.75     0          0          0          0
11255-ST         468.17     0          0          0          0
11278            478.69     0          0          0          0
11279            477.14     0          0          0          0
11280            475.73     0          0          0          0
11259            471.94     0          0          0          0
11260            470.77     0          0          0          0
11261            470.82     0          0          0          0
11262            471.00     0          0          0          0
11263            469.78     0          0          0          0
11264            472.63     0          0          0          0
11275            474.18     0          0          0          0
11282            480.89     0          0          0          0
11281            484.88     0          0          0          0
11276            475.80     0          0          0          0
11277            468.30     0          0          0          0
11268            464.90     0          0          0          0
11251            479.29     0          0          0          0
11209            481.07     0          0          0          0
11265            467.90     0          0          0          0
11266            465.00     0          0          0          0
11266a           465.00     0          0          0          0
71909-DO         450.00     0          0          0          0

[STORAGE]
;;Name           Elev       MaxDepth   InitDepth  Shape      Curve/Params
;;-------------- ---------- ---------- ---------- ---------- ----------
11628-T          462.00     -1.00      0          FUNCTIONAL 100.00 0          0
71805-DR         460.45     -1.05      0          FUNCTIONAL 100.00 0          0
71805-T          460.00     -1.00      0          FUNCTIONAL 100.00 0          0
08664            465.00     -1.00      0          FUNCTIONAL 100.00 0          0
08662            468.00     -1.00      0          FUNCTIONAL 100.00 0          0
71910a           455.67     -1.00      0          FUNCTIONAL 40.00 0          0
18C1B            461.50     -4.75      1.60       FUNCTIONAL 100.00 0          0
50386-PS         464.00     0          0.91       FUNCTIONAL 406.50 0          0
13308            456.64     -1.04      0          FUNCTIONAL 100.00 0          0
71889            460.20     -1.00      0          FUNCTIONAL 100.00 0          0
13321            458.80     -1.00      0          FUNCTIONAL 100.00 0          0
11257            465.00     -1.00      0          FUNCTIONAL 100.00 0          0
11248            468.04     -1.04      0          FUNCTIONAL 100.00 0          0

[CONDUITS]
;;Name           From             To               Length     Roughness  InOffset   OutOffset  InitFlow   MaxFlow
;;-------------- ---------------- ---------------- ---------- ---------- ---------- ---------- ---------- ----------
C30457           30457            08683            618.00     0.0150     429.89     429.73     0          0
C11775           11775            30457            426.00     0.0150     431.53     430.47     0          0
C11773           11773            11775            325.00     0.0150     431.85     431.53     0          0
C11699           11699            11773            668.00     0.0150     432.52     431.85     0          0
C11768           11768            11699            300.00     0.0150     432.87     432.52     0          0
C11694           11694            11768            345.00     0.0160     433.21     432.87     0          0
C11693           11693            11694            125.00     0.0150     433.34     433.21     0          0
C11613           11613            11693            405.00     0.0150     433.74     433.34     0          0
C11614           11614            11613            450.00     0.0150     434.69     434.24     0          0
C11660           11660            11614            480.00     0.0150     435.17     434.69     0          0
C11661           11661            11660            300.00     0.0140     435.47     435.17     0          0
C11702           11702            11661            300.00     0.0140     435.77     435.47     0          0
C11704           11704            11702            445.00     0.0140     436.22     435.77     0          0
C71876           71876            11704            290.00     0.0140     436.26     436.22     0          0
C71875           71875            71876            100.00     0.0092     436.31     436.26     0          0
C71877           71877            71875            317.00     0.0140     436.65     436.31     0          0
C13465           13465            71877            342.00     0.0140     437.08     436.65     0          0
C08986A-D        08986A-D         13465            277.00     0.0140     437.36     437.08     0          0
C66323           66323            08986A-D         135.00     0.0140     437.47     437.36     0          0
C50279           50279            66323            101.00     0.0140     437.61     437.47     0          0
C50280           50280            50279            215.00     0.0140     437.80     437.61     0          0
C50281           50281            50280            378.00     0.0140     438.25     437.80     0          0
C091N6           091N6            11699            200.00     0.0130     447.00     432.52     0          0
C11817-T         11817-T          78001            680.00     0.0130     449.48     448.80     0          0
C78001-DO        78001            78001-DO         230.00     0.0072     451.53     433.00     0          0
C09206a          09206a           11768            120.00     0.0037     433.97     432.87     0          0
C11696           11696            09206            90.00      0.0053     445.06     444.82     0          0
C71887-DO        09206            71887-DO         200.00     0.0130     444.82     435.24     0          0
C11613a          11613a           11613            300.00     0.0130     435.85     435.00     0          0
C20201           11613b           11613a           90.00      0.0037     435.89     435.88     0          0
C11613b          C08979           11613b           60.00      0.0130     0          0          0          0
C08979a          08979a           08979            70.00      0.0098     438.84     438.41     0          0
C08977           08977            08979a           535.00     0.0130     443.14     438.84     0          0
C08976           08976            08977            570.00     0.0130     448.84     443.14     0          0
C08969           08969            08976            1300.00    0.0130     461.84     448.84     0          0
C71828           71828            08977            470.00     0.0130     447.84     443.14     0          0
C71817-DO        71817-DOa        71817-DO         310.00     0.0066     438.83     435.05     0          0
C11659           11659            11660            180.00     0.0043     440.00     435.17     0          0
C11659a          11620            11659a           710.00     0.0130     445.28     443.50     0          0
C71880-DO        11659a           71880-DO         530.00     0.0130     444.50     442.17     0          0
C112R6           112R6            71876            890.00     0.0130     437.55     436.70     0          0
C22221           112R6a           112R6            70.00      0.0040     437.60     437.55     0          0
C112R6A          C151R6-AG        112R6a           80.00      0.0092     0          0          0          0
C30437-AG        30437-AG         151R6-AG         80.00      0.0065     438.92     438.69     0          0
C69222           69222            30437-AG         520.00     0.0130     447.24     441.58     0          0
C08975           08975            69222            1440.00    0.0130     463.22     448.05     0          0
C08939           08939            08975            570.00     0.0130     469.55     463.22     0          0
C30437-DO        30437-AG         30437-DO         310.00     0.0047     441.58     436.99     0          0
C13468a          13468a           08986A-D         90.00      0.0061     437.92     437.36     0          0
C66333a          66333a           13468a           90.00      0.0092     440.00     437.92     0          0
C66333           66333            66333a           80.00      0.0130     441.56     440.00     0          0
C13462           C13461           66333            60.00      0.0130     0          0          0          0
C13457           13461            13462            310.00     0.0130     453.15     442.67     0          0
C13468b          13457            13461            430.00     0.0130     479.33     453.65     0          0
C66325           13468b           66333a           90.00      0.0043     441.10     440.00     0          0
C08370           66325            13468b           1370.00    0.0130     450.29     444.67     0          0
C2309            08370            66325            560.00     0.0130     452.59     450.29     0          0
C13461-DO        13461            13461-DO         330.00     0.0130     453.82     444.57     0          0
C66332-DO        66332-DOa        66332-DO         162.00     0.0130     441.09     440.32     0          0
C08988a          08988a           66323            50.00      0.0058     438.86     438.47     0          0
C24241           08988b           08988a           60.00      0.0073     440.42     440.13     0          0
C08988b          08988            08988b           60.00      0.0106     440.80     440.42     0          0
C08988           08992            08988            270.00     0.0130     445.01     443.17     0          0
C08992           08993            08992            365.00     0.0130     446.95     445.01     0          0
C08988-DO        08988c           08988-DO         250.00     0.0058     440.79     439.00     0          0
C08993           08994            08993            270.00     0.0043     450.52     446.95     0          0
C08994           08997            08994            700.00     0.0130     453.60     450.52     0          0
C71909-XDO       08682-DR         71909-XDO        793.00     0.0130     431.83     430.84     0          0
C08682-DR        08681-DR         08682-DR         700.00     0.0130     432.71     431.83     0          0
C08681-DR        08680-DR         08681-DR         492.00     0.0130     433.33     432.71     0          0
C08680-DR        71903-T          08680-DR         218.00     0.0130     433.60     433.33     0          0
C71903-T         11628-T          71903-T          243.00     0.0130     433.89     433.60     0          0
C11628-T         71805-DR         11628-T          263.00     0.0130     434.20     433.89     0          0
C71805-DR        71805-T          71805-DR         372.00     0.0130     434.69     434.20     0          0
C71805-T         71898-D          71805-T          570.00     0.0130     435.45     434.69     0          0
C71898-D         71898-DR         71898-D          413.00     0.0130     438.19     437.47     0          0
C71898-DR        71898B-S         71898-DR         670.00     0.0130     439.40     438.19     0          0
C71898B-S        71898A-S         71898B-S         320.00     0.0130     443.48     440.45     0          0