;; SWMM5 .inp converted from XPSWMM .xp file
;; Generated by XPSWMM Card Reader
;; Source format: XP_CARD | Original title: Broward County NADA Study Model

[TITLE]
;;Project Title/Notes
Broward County NADA Study Model

[OPTIONS]
FLOW_UNITS           CFS
INFILTRATION         HORTON
FLOW_ROUTING         DYNWAVE
LINK_OFFSETS         DEPTH
MIN_SLOPE            0.0
ALLOW_PONDING        NO
SKIP_STEADY_STATE    NO
ROUTING_STEP         00:00:3600
VARIABLE_STEP        0.75
INERTIAL_DAMPING     NONE
NORMAL_FLOW_LIMITED  BOTH
MAX_TRIALS           50

[JUNCTIONS]
;;Name           Elev       MaxDepth   InitDepth  SurDepth   Aponded
;;-------------- ---------- ---------- ---------- ---------- ----------
0                0          0          0          0          0
0                16.00      0          17.50      0          0
0                16.00      0          17.50      0          0
0                16.00      0          17.50      0          0
0                16.00      0          17.50      0          0
0                16.00      0          17.50      0          0
0                16.00      0          17.50      0          0
0                16.00      0          17.50      0          0
0                16.00      0          17.50      0          0
0                16.00      0          17.50      0          0
0                16.00      0          17.50      0          0
0                16.00      0          17.50      0          0
0                16.00      0          17.50      0          0
0                16.00      0          17.50      0          0
0                16.00      0          17.41      0          0
0                17.00      0          17.50      0          0
0                17.00      0          17.50      0          0
0                17.00      0          17.50      0          0
0                17.00      0          17.50      0          0
0                16.00      0          17.50      0          0
0                16.00      0          14.50      0          0
0                16.00      0          10.00      0          0
0                16.00      0          10.00      0          0
0                16.00      0          10.00      0          0
0                15.00      0          17.50      0          0
0                15.00      0          17.50      0          0
0                15.00      0          14.33      0          0
0                16.00      0          15.00      0          0
0                16.00      0          15.00      0          0
0                16.00      0          15.00      0          0
0                16.00      0          15.00      0          0
0                16.00      0          15.00      0          0
0                16.00      0          17.50      0          0
0                16.00      0          17.50      0          0
0                16.00      0          17.50      0          0
0                16.00      0          17.50      0          0
0                16.00      0          17.50      0          0
0                16.00      0          17.50      0          0
0                16.00      0          17.50      0          0
0                16.00      0          17.50      0          0
0                15.00      0          17.50      0          0
0                15.00      0          17.50      0          0
0                15.00      0          17.50      0          0
0                16.00      0          17.50      0          0
0                16.00      0          17.50      0          0
0                16.00      0          17.50      0          0
0                16.00      0          17.50      0          0
0                16.00      0          17.50      0          0
0                16.00      0          17.50      0          0
0                15.00      0          17.50      0          0
0                16.00      0          17.50      0          0
0                17.00      0          17.50      0          0
0                17.00      0          17.50      0          0
0                16.00      0          0          0          0
0                16.00      0          0          0          0
0                17.00      0          0          0          0
0                17.00      0          0          0          0
0                17.00      0          0          0          0
0                16.00      0          0          0          0
0                17.00      0          0          0          0
0                17.00      0          0          0          0
0                17.00      0          0          0          0
0                17.00      0          0          0          0
0                17.00      0          0          0          0
0                17.00      0          14.33      0          0
0                17.00      0          0          0          0
0                14.00      0          17.50      0          0
0                16.00      0          17.50      0          0
0                15.00      0          17.50      0          0
0                17.00      0          17.50      0          0
0                14.00      0          17.50      0          0
0                17.00      0          17.50      0          0
0                14.00      0          17.50      0          0

[STORAGE]
;;Name           Elev       MaxDepth   InitDepth  Shape      Curve/Params
;;-------------- ---------- ---------- ---------- ---------- ----------
0                17.00      0          21.50      FUNCTIONAL 0 0          0
0                15.00      0          19.00      FUNCTIONAL 0 0          0
0                16.00      0          19.25      FUNCTIONAL 0 0          0
0                16.00      0          18.50      FUNCTIONAL 0 0          0
0                18.40      -2.40      19.00      FUNCTIONAL 0 0          0
0                16.00      0          20.00      FUNCTIONAL 0 0          0
0                16.00      0          22.00      FUNCTIONAL 0 0          0
0                16.00      0          18.00      FUNCTIONAL 0 0          0
0                16.00      0          21.00      FUNCTIONAL 0 0          0
0                16.00      0          20.00      FUNCTIONAL 0 0          0
0                16.00      0          20.00      FUNCTIONAL 0 0          0
0                16.00      0          20.00      FUNCTIONAL 0 0          0
0                16.00      0          19.25      FUNCTIONAL 0 0          0
0                14.00      0          17.46      FUNCTIONAL 0 0          0
0                15.50      0          17.46      FUNCTIONAL 0 0          0
0                16.00      0          17.50      FUNCTIONAL 0 0          0
0                16.00      0          19.25      FUNCTIONAL 0 0          0
0                16.00      0          18.00      FUNCTIONAL 0 0          0
0                16.00      0          19.70      FUNCTIONAL 0 0          0
0                16.00      0          18.60      FUNCTIONAL 0 0          0
0                15.00      0          19.00      FUNCTIONAL 0 0          0
0                16.00      0          18.50      FUNCTIONAL 0 0          0
0                16.00      0          17.50      FUNCTIONAL 0 0          0
0                16.00      -2.00      17.50      FUNCTIONAL 0 0          0
0                13.00      0          17.25      FUNCTIONAL 0 0          0
0                17.00      0          21.50      FUNCTIONAL 0 0          0
0                17.00      0          19.00      FUNCTIONAL 0 0          0
0                12.00      0          17.50      FUNCTIONAL 0 0          0
0                14.00      0          17.50      FUNCTIONAL 0 0          0
0                12.00      0          17.00      FUNCTIONAL 0 0          0
0                12.00      0          17.20      FUNCTIONAL 0 0          0
0                16.00      0          19.00      FUNCTIONAL 0 0          0
0                16.00      0          20.00      FUNCTIONAL 0 0          0
0                16.00      0          18.00      FUNCTIONAL 0 0          0
0                16.00      0          21.00      FUNCTIONAL 0 0          0
0                16.00      0          20.00      FUNCTIONAL 0 0          0
0                16.00      0          20.00      FUNCTIONAL 0 0          0
0                16.00      0          19.25      FUNCTIONAL 0 0          0
0                16.00      0          19.70      FUNCTIONAL 0 0          0
0                15.00      0          19.00      FUNCTIONAL 0 0          0
0                16.00      0          18.50      FUNCTIONAL 0 0          0
0                16.00      0          18.50      FUNCTIONAL 0 0          0
0                16.00      0          19.00      FUNCTIONAL 0 0          0
0                15.00      0          19.00      FUNCTIONAL 0 0          0
0                14.00      0          17.50      FUNCTIONAL 0 0          0
0                12.00      0          17.50      FUNCTIONAL 0 0          0
0                12.00      0          16.60      FUNCTIONAL 0 0          0
0                12.00      0          17.20      FUNCTIONAL 0 0          0
0                17.00      0          19.00      FUNCTIONAL 0 0          0
0                13.00      0          17.25      FUNCTIONAL 0 0          0
0                17.00      0          21.50      FUNCTIONAL 0 0          0
0                16.00      0          17.00      FUNCTIONAL 0 0          0
0                16.00      0          20.00      FUNCTIONAL 0 0          0
0                16.00      0          18.00      FUNCTIONAL 0 0          0
0                16.00      0          18.00      FUNCTIONAL 0 0          0
0                15.00      0          19.25      FUNCTIONAL 0 0          0
0                16.00      0          18.00      FUNCTIONAL 0 0          0
0                16.00      0          20.00      FUNCTIONAL 0 0          0
0                16.00      0          20.00      FUNCTIONAL 0 0          0
0                16.00      0          19.25      FUNCTIONAL 0 0          0
0                15.50      0          17.46      FUNCTIONAL 0 0          0
0                16.00      0          17.50      FUNCTIONAL 0 0          0
0                16.00      0          18.60      FUNCTIONAL 0 0          0
0                17.00      0          21.50      FUNCTIONAL 0 0          0

[CONDUITS]
;;Name           From             To               Length     Roughness  InOffset   OutOffset  InitFlow   MaxFlow
;;-------------- ---------------- ---------------- ---------- ---------- ---------- ---------- ---------- ----------
284              0                0                0          0          0          0          0          0
284              0                0                0          0          0          0          0          0
284              0                0                0          0          0          0          0          0
284              0                0                0          0          0          0          0          0
217              0                0                0          0          0          0          0          0
207              0                0                0          0          0          0          0          0
207              0                0                0          0          0          0          0          0
542              0                0                0          0          0          0          0          0
543              0                0                0          0          0          0          0          0
545              0                0                0          0          0          0          0          0
548              0                0                0          0          0          0          0          0
551              0                0                1037.00    0.0120     5.00       5.00       0          0
1004D23-10GW     0                0                0          0          0          0          0          0
573              0                0                0          0          0          0          0          0
542              0                0                0          0          0          0          0          0
542              0                0                0          0          0          0          0          0
573              0                0                0          0          0          0          0          0
641              0                0                0          0          0          0          0          0
641              0                0                0          0          0          0          0          0
546              0                0                0          0          0          0          0          0
641              0                0                0          0          0          0          0          0
641              0                0                0          0          0          0          0          0
544              0                0                0          0          0          0          0          0
545              0                0                0          0          0          0          0          0
544              0                0                0          0          0          0          0          0
544              0                0                0          0          0          0          0          0
551              0                0                0          0          0          0          0          0
544              0                0                0          0          0          0          0          0
233              0                0                0          0          0          0          0          0
233              0                0                0          0          0          0          0          0
217              0                0                0          0          0          0          0          0
641              0                0                0          0          0          0          0          0
557              0                0                220.00     0.0120     4.00       4.00       0          0
553              0                0                0          0          0          0          0          0
556              0                0                0          0          0          0          0          0
557              0                0                0          0          0          0          0          0
557              0                0                0          0          0          0          0          0
567              0                0                0          0          0          0          0          0
568              0                0                0          0          0          0          0          0
568              0                0                0          0          0          0          0          0
567              0                0                0          0          0          0          0          0
566              0                0                0          0          0          0          0          0
207              0                0                0          0          0          0          0          0
565              0                0                0          0          0          0          0          0
565              0                0                0          0          0          0          0          0
233              0                0                0          0          0          0          0          0
543              0                0                0          0          0          0          0          0
564              0                0                0          0          0          0          0          0
567              0                0                0          0          0          0          0          0
569              0                0                0          0          0          0          0          0
548              0                0                0          0          0          0          0          0
549              0                0                0          0          0          0          0          0
550              0                0                0          0          0          0          0          0
555              0                0                0          0          0          0          0          0
558              0                0                0          0          0          0          0          0
559              0                0                0          0          0          0          0          0
CH-O             0                0                300.00     0.0120     -9.75      -10.00     0          0
CH-O             0                0                300.00     0.0001     -10.00     -10.00     0          0
CH-O             0                0                300.00     0.0001     -9.97      -10.00     0          0
CH-O             0                0                300.00     0.0001     -9.97      -10.00     0          0
542              0                0                0          0          0          0          0          0
979              0                0                300.00     0.0001     -9.97      -10.00     0          0
914.1            0                0                300.00     0.0001     -9.97      -10.00     0          0
971              0                0                300.00     0.0001     -9.97      -10.00     0          0
940              0                0                300.00     0.0001     -9.97      -10.00     0          0
1007D29O         0                0                300.00     0.0001     -9.97      -10.00     0          0
938              0                0                300.00     0.0001     -9.97      -10.00     0          0
944              0                0                300.00     0.0001     -9.97      -10.00     0          0
1004D23-O        0                0                300.00     0.0001     -9.97      -10.00     0          0
952              0                0                300.00     0.0001     -9.97      -10.00     0          0
962              0                0                300.00     0.0001     -9.97      -10.00     0          0
559              0                0                300.00     0.0001     -9.97      -10.00     0          0
558              0                0                0          0          0          0          0          0
542              0                0                0          0          0          0          0          0
543              0                0                0          0          0          0          0          0
545              0                0                0          0          0          0          0          0
546              0                0                0          0          0          0          0          0
553              0                0                0          0          0          0          0          0
556              0                0                0          0          0          0          0          0
557              0                0                0          0          0          0          0          0
231              0                0                0          0          0          0          0          0
217              0                0                0          0          0          0          0          0
568              0                0                0          0          0          0          0          0
567              0                0                0          0          0          0          0          0
569              0                0                0          0          0          0          0          0
570              0                0                0          0          0          0          0          0
565              0                0                0          0          0          0          0          0
564              0                0                0          0          0          0          0          0
566              0                0                0          0          0          0          0          0
239              0                0                0          0          0          0          0          0
573              0                0                0          0          0          0          0          0
284              0                0                0          0          0          0          0          0
230              0                0                0          0          0          0          0          0
552              0                0                0          0          0          0          0          0
544              0                0                0          0          0          0          0          0
242              0                0                0          0          0          0          0          0
641              0                0                0          0          0          0          0          0
551              0                0                0          0          0          0          0          0
555              0                0                0          0          0          0          0          0
549              0                0                0          0          0          0          0          0
550              0                0                0          0          0          0          0          0
555              0                0                0          0          0          0          0          0
217              0                0                0          0          0          0          0          0
973              0                0                300.00     0.0001     -9.97      -10.00     0          0
207              0                0                0          0          0          0          0          0
969              0                0                300.00     0.0001     -9.97      -10.00     0          0

[WEIRS]
;;Name           From             To               Type       CrestHt    Qcoeff     Gated    EndCon   EndCoeff   Surcharge
;;-------------- ---------------- ---------------- ---------- ---------- ---------- -------- -------- ---------- ----------
239              0                0                TRANSVERSE 11.00      1.840      NO       0        0          YES
230              0                0                TRANSVERSE 9.00       1.840      NO       0        0          YES
233              0                0                TRANSVERSE 9.00       1.840      NO       0        0          YES
242              0                0                TRANSVERSE 11.00      1.840      NO       0        0          YES
544              0                0                TRANSVERSE 10.00      1.840      NO       0        0          YES
810              0                0                TRANSVERSE 11.00      1.840      NO       0        0          YES
207              0                0                TRANSVERSE 11.00      1.840      NO       0        0          YES
242              0                0                TRANSVERSE 11.00      1.840      NO       0        0          YES
242              0                0                TRANSVERSE 11.00      1.840      NO       0        0          YES
544              0                0                TRANSVERSE 10.00      1.840      NO       0        0          YES
230              0                0                TRANSVERSE 9.00       1.840      NO       0        0          YES
230              0                0                TRANSVERSE 9.00       1.840      NO       0        0          YES
233              0                0                TRANSVERSE 9.00       1.840      NO       0        0          YES
233              0                0                TRANSVERSE 9.00       1.840      NO       0        0          YES
239              0                0                TRANSVERSE 11.00      1.840      NO       0        0          YES

[PUMPS]
;;Name           From             To               PumpCurve  Status   Startup    Shutoff
;;-------------- ---------------- ---------------- ---------- -------- ---------- ----------
231              0                0                PC_231     ON       11.50      9.50      
217              0                0                PC_217     ON       10.50      9.00      
1034CS-50        0                0                PC_1034CS-50 ON       11.00      0         
CS2-P            0                0                PC_CS2-P   ON       10.01      9.50      
CS3-PUMP         CS3-WEIR         0                PC_CS3-PUMP ON       9.00       8.00      
550              0                0                PC_550     ON       9.00       8.50      
CS57PIPE         0                0                PC_CS57PIPE ON       11.01      9.50      
552              0                0                PC_552     ON       11.01      9.50      
553              CS40             0                PC_553     ON       10.50      9.50      
CS9-P            0                0                PC_CS9-P   ON       9.01       7.49      
555              0                0                PC_555     ON       11.00      9.50      
CS12-P           0                0                PC_CS12-P  ON       15.00      8.00      
566              0                0                PC_566     ON       10.00      9.50      
568              0                0                PC_568     ON       9.00       7.00      
567              0                0                PC_567     ON       9.00       7.00      
569              0                0                PC_569     ON       9.00       6.50      
570              0                0                PC_570     ON       9.00       6.50      
546              0                0                PC_546     ON       9.50       9.00      
807              0                0                PC_807     ON       9.50       8.00      
556              0                0                PC_556     ON       10.50      9.50      
546              0                0                PC_546     ON       10.01      9.50      
557              0                0                PC_557     ON       10.00      8.00      
557              0                0                PC_557     ON       10.00      8.00      
570              0                0                PC_570     ON       7.25       6.50      
569              0                0                PC_569     ON       7.25       6.50      
564              0                0                PC_564     ON       7.00       6.50      
559              0                0                PC_559     ON       9.01       7.49      
217              0                0                PC_217     ON       10.50      9.00      
564              0                0                PC_564     ON       7.00       6.50      
553              0                0                PC_553     ON       11.00      9.00      
557              0                0                PC_557     ON       10.50      9.00      
230              0                0                PC_230     ON       11.00      9.50      
207              0                0                PC_207     ON       13.00      10.00     
1034PT-CS2       0                0                PC_1034PT-CS2 ON       12.00      10.00     
544              0                0                PC_544     ON       9.00       0         

[CURVES]
;;Name           Type       X-Value    Y-Value
;;-------------- ---------- ---------- ----------
PC_231           Pump3      0          0
;
PC_217           Pump3      0          0
;
PC_1034CS-50     Pump3      0          0
;
PC_CS2-P         Pump3      0          0
;
PC_CS3-PUMP      Pump3      0          0
;
PC_550           Pump3      0          0
;
PC_CS57PIPE      Pump3      0          0
;
PC_552           Pump3      0          0
;
PC_553           Pump3      0          0
;
PC_CS9-P         Pump3      0          0
;
PC_555           Pump3      0          0
;
PC_CS12-P        Pump3      0          0
;
PC_566           Pump3      0          0
;
PC_568           Pump3      0          0
;
PC_567           Pump3      0          0
;
PC_569           Pump3      0          0
;
PC_570           Pump3      0          0
;
PC_546           Pump3      0          0
;
PC_807           Pump3      0          0
;
PC_556           Pump3      0          0
;
PC_546           Pump3      0          0
;
PC_557           Pump3      0          0
;
PC_557           Pump3      0          0
;
PC_570           Pump3      0          0
;
PC_569           Pump3      0          0
;
PC_564           Pump3      0          0
;
PC_559           Pump3      0          0
;
PC_217           Pump3      0          0
;
PC_564           Pump3      0          0
;
PC_553           Pump3      0          0
;
PC_557           Pump3      0          0
;
PC_230           Pump3      0          0
;
PC_207           Pump2      0          0
;
PC_1034PT-CS2    Pump3      0          0
;
PC_544           Pump3      0          0
;

[XSECTIONS]
;;Link           Shape        Geom1      Geom2      Geom3      Geom4      Barrels
;;-------------- ------------ ---------- ---------- ---------- ---------- ----------
284              CIRCULAR     0          0          0          0          1
284              CIRCULAR     0          0          0          0          1
284              CIRCULAR     0          0          0          0          1
284              CIRCULAR     0          0          0          0          1
217              CIRCULAR     0          0          0          0          1
207              CIRCULAR     0          0          0          0          1
207              CIRCULAR     0          0          0          0          1
542              CIRCULAR     0          0          0          0          1
543              CIRCULAR     0          0          0          0          1