;; SWMM5 .inp converted from XPSWMM .xp file
;; Generated by XPSWMM Card Reader
;; Source format: XP_CARD | Original title: calibration model- Upper Parramatta River Catchment

[TITLE]
;;Project Title/Notes
calibration model- Upper Parramatta River Catchment

[OPTIONS]
FLOW_UNITS           CMS
INFILTRATION         HORTON
FLOW_ROUTING         DYNWAVE
LINK_OFFSETS         DEPTH
MIN_SLOPE            0.0
ALLOW_PONDING        NO
SKIP_STEADY_STATE    NO
ROUTING_STEP         00:00:03
VARIABLE_STEP        0.75
INERTIAL_DAMPING     PARTIAL
NORMAL_FLOW_LIMITED  BOTH
MAX_TRIALS           100
HEAD_TOLERANCE       .001

[JUNCTIONS]
;;Name           Elev       MaxDepth   InitDepth  SurDepth   Aponded
;;-------------- ---------- ---------- ---------- ---------- ----------
T37.70           45.00      0          0          0          0
B7.00            40.00      0          0          0          0
B14.01           45.00      0          0          0          0
82.00T           45.00      0          0          0          0
8.030L           45.00      0          0          0          0
B16.51           45.00      0          0          0          0
GM4.20           45.00      0          0          0          0
B21.00           60.00      0          0          0          0
B15.15           60.00      0          0          0          0
GM3.40           60.00      0          0          0          0
T35.40           40.00      0          0          0          0
T37.20           45.00      0          0          0          0
B25.00           50.00      0          0          0          0
B28.00           60.00      0          0          0          0
8.010T           60.00      0          0          0          0
T56.10           60.00      0          0          0          0
T56.50           60.00      0          0          0          0
18.01T           60.00      0          0          0          0
T50.30           60.00      0          0          0          0
T50.50           60.00      0          0          0          0
T50.70           60.00      0          0          0          0
T50.90           60.00      0          0          0          0
T40.01           50.00      0          0          0          0
1.020L           50.00      0          0          0          0
B2.500           40.00      0          0          0          0
T45.00           50.00      0          0          0          0
GM5.50           45.00      0          0          0          0
10.00T           50.00      0          0          0          0
T35.08           40.00      0          0          0          0
1.010L           60.00      0          0          0          0
T51.4            60.00      0          0          0          0
T51.6            60.00      0          0          0          0
T51.8            65.00      0          0          0          0
T52.1            70.00      0          0          0          0
T52.3            70.00      0          0          0          0
T53.0            75.00      0          0          0          0
T53.5            80.00      0          0          0          0
1.000C           82.00      0          0          0          0
T58.0            60.00      0          0          0          0
T58.3            70.00      0          0          0          0
95.00T           70.00      0          0          0          0
T32.30           40.00      0          0          0          0
1.070L           40.00      0          0          0          0
T30.30           50.00      0          0          0          0
6.030L           40.00      0          0          0          0
PH1.15           40.00      0          0          0          0
PH9.5            50.00      0          0          0          0
PH11.0           50.00      0          0          0          0
G2.20            50.00      0          0          0          0
G9.50            50.00      0          0          0          0
G12.00           50.00      0          0          0          0
G13.00           50.00      0          0          0          0
G13.20           50.00      0          0          0          0
65.02L           50.00      0          0          0          0
PH19.4           60.00      0          0          0          0
PH19.8           60.00      0          0          0          0
PH20.2           60.00      0          0          0          0
6.000T           60.00      0          0          0          0
PH1.10           40.00      0          0          0          0
G6.70            50.00      0          0          0          0
T30.10           40.00      0          0          0          0
T30.00           40.00      0          0          0          0
T29.30           40.00      0          0          0          0
T28.05           40.00      0          0          0          0
T27.20           40.00      0          0          0          0
T27.15           40.00      0          0          0          0
T27.10           40.00      0          0          0          0
T27.08           40.00      0          0          0          0
T27.04           40.00      0          0          0          0
T27.00           40.00      0          0          0          0
1.080L           35.00      0          0          0          0
1.20J            35.00      0          0          0          0
T26.05           35.00      0          0          0          0
13.01T           40.00      0          0          0          0
2BOS.1           50.00      0          0          0          0
2BOS.2           50.00      0          0          0          0
2BOS.4           50.00      0          0          0          0
2BOS.5           50.00      0          0          0          0
PH9.25           50.00      0          0          0          0
G14.50           50.00      0          0          0          0
PH8.05           50.00      0          0          0          0
PH6.6            45.00      0          0          0          0
9.020C           55.00      0          0          0          0
9.010J           55.00      0          0          0          0
92.00C           55.00      0          0          0          0
9.000C           65.00      0          0          0          0
8.000C           70.00      0          0          0          0
1.160L           30.00      0          0.02       0          0
P1.000           30.00      0          1.00       0          0
T19.00           30.00      0          0.64       0          0
F2.240           40.00      0          0          0          0
F2.260           40.00      0          0          0          0
4.020L           40.00      0          0          0          0
F2.350           40.00      0          0          0          0
F2.500           40.00      0          0          0          0
C2.200           40.00      0          0          0          0
C3.000           40.00      0          0          0          0
C3.300           40.00      0          0          0          0
5.010L           40.00      0          0          0          0
C6.000           40.00      0          0          0          0
C8.000           40.00      0          0          0          0
5.000T           40.00      0          0          0          0
F2.530           40.00      0          0          0          0
F2.570           40.00      0          0          0          0
F2.610           40.00      0          0          0          0
4.010L           40.00      0          0          0          0
F2.780           40.00      0          0          0          0
4.000T           40.00      0          0          0          0
1.090L           30.00      0          0.68       0          0
T24.00           30.00      0          1.80       0          0
T24.20           30.00      0          0.62       0          0
T25.10           30.00      0          0.15       0          0
T25.21           30.00      0          0.28       0          0
F2.770           40.00      0          0          0          0
D1.900           35.00      0          0.31       0          0
D1.800           30.00      0          0          0          0
2.080L           25.00      0          0          0          0
1.280J           30.00      0          3.02       0          0
D2.360           40.00      0          0          0          0
D2.340           40.00      0          0          0          0
D2.320           35.00      0          0          0          0
2.050L           55.00      0          0          0          0
D2.400           45.00      0          0          0          0
D2.390           45.00      0          0          0          0
34.00T           55.00      0          0          0          0
D2.430           55.00      0          0          0          0
D2.480           55.00      0          0          0          0
D1.710           30.00      0          0.71       0          0
D1.650           30.00      0          0          0          0
D1.580           30.00      0          1.07       0          0
D2.300           35.00      0          0          0          0
D2.330           40.00      0          0          0          0
2.040J           60.00      0          0          0          0
D2.560           70.00      0          0          0          0
D2.540           70.00      0          0          0          0
D2.510           60.00      0          0          0          0
P9.100           30.00      0          3.04       0          0
1.140L           30.00      0          1.23       0          0
52.00T           30.00      0          1.31       0          0
P12.40           30.00      0          2.43       0          0
P13.00           30.00      0          3.45       0          0
P14.00           30.00      0          1.79       0          0
T16.00           30.00      0          1.92       0          0
1.110L           30.00      0          2.93       0          0
T18.10           30.00      0          1.93       0          0
T18.30           30.00      0          1.26       0          0
P9.000           30.00      0          3.03       0          0
P8.900           30.00      0          3.70       0          0
PH3.10           40.00      0          0          0          0
T33.10           40.00      0          0          0          0
66.00C           55.00      0          0          0          0
65.01J           55.00      0          0          0          0
65.00C           50.00      0          0          0          0
13.00C           45.00      0          0          0          0
2.000C           65.00      0          0          0          0
2.010j           65.00      0          0          0          0
21.00C           65.00      0          0          0          0
2.020J           65.00      0          0          0          0
23.00C           65.00      0          0          0          0
2.030C           60.00      0          0          0          0
25.00C           85.00      0          0          0          0
25.01J           85.00      0          0          0          0
24.00C           85.00      0          0          0          0
25.02L           50.00      0          0          0          0
3.000C           0          0          0          0          0
48.00C           35.00      0          0          0          0
9.040L           40.00      0          0          0          0
L4.00            50.00      0          0          0          0

[OUTFALLS]
;;Name           Elev       Type       Stage      Gated
;;-------------- ---------- ---------- ---------- -----
T53.3            75.00      FREE                  NO

[STORAGE]
;;Name           Elev       MaxDepth   InitDepth  Shape      Curve/Params
;;-------------- ---------- ---------- ---------- ---------- ----------
T36.10           40.00      0          0          FUNCTIONAL 100.00 0          0
1.030L           40.00      0          0          FUNCTIONAL 100.00 0          0
8.050L           40.00      0          0          FUNCTIONAL 100.00 0          0
B12.00           45.00      0          0          FUNCTIONAL 1.00 0          0
8.020L           60.00      -15.00     0          FUNCTIONAL 1.00 0          0
10.01L           50.00      0          0          FUNCTIONAL 10.00 0          0
L7.10            45.00      0          0          FUNCTIONAL 1.00 0          0
L8.10            50.00      -5.00      0          FUNCTIONAL 0 0          0
GM7.20           50.00      0          0          FUNCTIONAL 10.00 0          0
9.030T           55.00      5.00       0          FUNCTIONAL 0 0          0
T39.97           40.00      0          0          FUNCTIONAL 400.00 0          0
B23.10           50.00      -5.00      0          FUNCTIONAL 1.00 0          0
1.050L           40.00      10.00      0          FUNCTIONAL 10000.00 0          0
T36.95           40.00      0          0          FUNCTIONAL 10.00 0          0
B0.500           40.00      0          0          FUNCTIONAL 0 0          0
T32.70           40.00      0          0          FUNCTIONAL 7.00 0          0
T33.40           50.00      0          0          FUNCTIONAL 1000.00 0          0
6.010L           50.00      1.00       0          FUNCTIONAL 2.00 0          0
65.04L           50.00      0          0          FUNCTIONAL 1.00 0          0
G5.00            50.00      0          0          FUNCTIONAL 50.00 0          0
65.03L           50.00      0          0          FUNCTIONAL 10.00 0          0
PH16.0           50.00      0          0          FUNCTIONAL 10.00 0          0
PH18.1           50.00      0          0          FUNCTIONAL 10.00 0          0
2BOS.3           50.00      0          0          FUNCTIONAL 1000.00 0          0
P8.300           30.00      0          3.71       FUNCTIONAL 100.00 0          0
P8.000           30.00      0          3.74       FUNCTIONAL 100.00 0          0
P3.000           30.00      0          2.20       FUNCTIONAL 10.00 0          0
P2.300           30.00      0          2.06       FUNCTIONAL 10.00 0          0
P2.180           30.00      0          1.97       FUNCTIONAL 400.00 0          0
P7.000           30.00      0          3.34       FUNCTIONAL 200.00 0          0
45.00T           30.00      0          0          FUNCTIONAL 500.00 0          0
T20.00           30.00      0          0          FUNCTIONAL 100.00 0          0
T21.10           30.00      0          0          FUNCTIONAL 100.00 0          0
T22.50           30.00      0          1.70       FUNCTIONAL 500.00 0          0
5.020L           40.00      0          0.17       FUNCTIONAL 100.00 0          0
C1.300           40.00      0          0          FUNCTIONAL 100.00 0          0
C5.500           40.00      0          0          FUNCTIONAL 16.00 0          0
51.00T           40.00      0          0          FUNCTIONAL 100.00 0          0
Milsn2           40.00      0          0          FUNCTIONAL 50.00 0          0
D1.480           30.00      0          1.97       FUNCTIONAL 100.00 0          0
D1.220           25.00      0          0          FUNCTIONAL 100.00 0          0
2.060L           30.00      0          0.25       FUNCTIONAL 100.00 0          0
T17.00           30.00      0          0          FUNCTIONAL 10.00 0          0
H6.000           30.00      0          0.07       FUNCTIONAL 500.00 0          0
3.010T           30.00      0          0          FUNCTIONAL 100.00 0          0
6.020L           50.00      0          0          FUNCTIONAL 100.00 0          0
PH2.1            40.00      10.00      0          FUNCTIONAL 2.00 0          0
T32.50           40.00      10.00      0          FUNCTIONAL 2.00 0          0
G3.100           50.00      0          0          FUNCTIONAL 5.00 0          0

[CONDUITS]
;;Name           From             To               Length     Roughness  InOffset   OutOffset  InitFlow   MaxFlow
;;-------------- ---------------- ---------------- ---------- ---------- ---------- ---------- ---------- ----------
T35-40           T35.40           T35.08           220.00     0          24.97      24.30      0          0
T35-70           T36.10           T35.40           178.08     0          25.85      24.97      0          0
B7-00            B7.00            8.050L           180.00     0          28.93      28.39      0          0
B6-00            8.050L           B2.500           345.22     0          28.39      25.37      0          0
B11-00           B12.00           B7.00            361.00     0          29.90      28.93      0          0
B14-01           B14.01           B12.00           220.00     0          31.55      29.90      0          0
B15-00           B15.15           B14.01           137.00     0          31.90      31.42      0          0
B18-00           82.00T           8.030L           165.00     0          35.05      34.58      0          0
B17-50           8.030L           B16.51           276.00     0          34.58      33.20      0          0
B16-51           B16.51           B15.15           331.00     0          33.20      32.01      0          0
GM3-80           GM4.20           GM3.40           195.73     0          32.34      30.14      0          0
GM7-00           GM7.20           GM5.50           277.08     0          35.97      33.52      0          0
L1-00            ?                Node_4069397     94.00      0          29.58      28.93      0          0
L6-10            L7.10            L4.00            282.00     0          31.96      30.63      0          0
B21-1C           B21-1R           B21.00           27.66      0.0150     35.92      35.80      0          0
GM2-00           10.01L           8.050L           185.71     0          29.20      28.39      0          0
GM3-40           GM3.40           10.01L           250.00     0          30.14      29.20      0          0
GM8-03           ?                Node_1334635     179.70     0          36.70      35.97      0          0
T37-36           T37.70           T37.20           178.00     0          34.00      32.23      0          0
T36-97           T39.97           T36.95           225.00     0          29.80      29.23      0          0
T37-20           T37.20           T39.97           234.80     0          32.23      29.80      0          0
L8-00            L8.10            L7.10            124.80     0          32.98      31.96      0          0
L10-50           9.030T           L8.10            274.50     0          36.16      32.98      0          0
B26-00           B28.00           B25.00           198.00     0          40.03      38.37      0          0
B25-00           B25.00           B23.10           296.00     0          38.37      36.48      0          0
B23-00           B23.10           8.020L           266.48     0          36.48      35.92      0          0
B33-50           8.010T           B28.00           397.00     0          41.31      40.03      0          0
T56-30           T56.50           T56.10           357.00     0          43.73      36.86      0          0
T56-10           T56.10           1.020L           203.00     0          36.86      34.20      0          0
T56-80           18.01T           T56.50           226.00     0          47.50      43.74      0          0
T50-90           T50.90           T50.70           239.00     0          40.57      38.66      0          0
T50-70           T50.70           T50.50           167.00     0          38.66      37.76      0          0
T50-50           T50.50           T50.30           209.00     0          37.76      37.17      0          0
T50-30           T50.30           1.020L           382.00     0          37.17      36.38      0          0
T36-75           Node_75          Node_1012365     362.80     0          29.23      27.16      0          0
T36-50           1.030L           T36.10           208.00     0          27.16      25.85      0          0
T40-00           ?                Node_1159374     136.00     0          33.64      33.20      0          0
B2-200           Node_200         Node_13101338    214.00     0          25.37      24.58      0          0
T44-50           Node_50          Node_1163374     319.00     0          34.17      33.64      0          0
GM5-50           Node_50          Node_1329471     356.10     0          33.52      32.34      0          0
Bas2BT           ?                Node_1339785     413.08     0          24.30      23.70      0          0
Bas2BB           ?                Node_1338785     340.00     0          24.30      23.70      0          0
T51-0            Node_51          Node_1904930     151.70     0          42.20      40.57      0          0
T51-4            Node_51          Node_19101904    325.00     0          44.30      42.20      0          0
T51-6            Node_51          Node_19141910    219.00     0          45.97      44.30      0          0
T51-8            Node_51          Node_19181914    273.00     0          48.80      45.97      0          0
T52-1            Node_52          Node_19221918    201.00     0          50.58      48.80      0          0
T52-3            Node_52          Node_19261922    260.00     0          56.03      50.58      0          0
T53-0            Node_53          Node_19341926    334.50     0          62.66      56.08      0          0
T53-3            Node_53          Node_19391934    201.40     0          65.00      62.66      0          0
T53-5            Node_53          Node_19441939    192.50     0          69.00      65.00      0          0
T53-7            Node_53          Node_19481944    263.00     0          71.52      69.00      0          0
T57-7            Node_57          Node_19751904    489.00     0          48.05      42.20      0          0
T58-3            Node_58          Node_19801975    325.00     0          52.14      48.05      0          0
T58-5            Node_58          Node_19861980    168.00     0          54.08      52.14      0          0
T32-30           ?                Node_20552058    207.00     0          18.09      17.30      0          0
T32-00           ?                Node_20582062    135.00     0          17.30      17.32      0          0
T30-30           ?                Node_20622253    250.00     0          17.32      17.00      0          0
PH1-20           ?                Node_20672068    62.00      0          23.00      22.66      0          0
PH1-15           ?                Node_20672243    137.00     0          23.00      22.25      0          0
PH10-5           ?                Node_20862081    154.00     0          32.34      30.75      0          0
G2-60            Node_60          Node_31332099    323.80     0          24.63      23.52      0          0
G2-20            ?                Node_20992067    130.00     0          23.52      23.00      0          0
PH12-0           ?                Node_20932086    280.00     0          33.46      32.34      0          0
G13-20           ?                Node_21352133    159.00     0          32.52      31.62      0          0
G13-00           ?                Node_21332132    230.00     0          31.62      30.33      0          0
G11-0            ?                Node_21322128    270.00     0          30.33      28.67      0          0
G9-5             ?                Node_21282152    136.00     0          28.67      28.28      0          0
G5-0             ?                Node_21212117    246.00     0          27.25      26.38      0          0
G7-5             ?                Node_21522250    124.00     0          28.28      27.89      0          0
G15-40           ?                Node_21362339    252.00     0          35.27      34.31      0          0
PH15-5           ?                Node_21722093    413.50     0          35.40      33.46      0          0
PH19-8           ?                Node_21922190    176.00     0          39.60      38.75      0          0
PH19-4           ?                Node_21902187    268.00     0          38.75      37.56      0          0
PH17-8           ?                Node_21872172    338.90     0          37.56      35.40      0          0
PH22-5           ?                Node_22092205    210.20     0          43.46      41.04      0          0
PH20-2           ?                Node_22052192    217.00     0          41.04      39.60      0          0
PH1-10           ?                Node_22432066    180.00     0          22.25      21.60      0          0
G6-5             ?                Node_22502121    221.50     0          27.89      27.25      0          0
T30-10           ?                Node_22532254    205.00     0          17.00      17.09      0          0
T30-00           ?                Node_22542256    279.00     0          17.09      16.40      0          0
T29-10           ?                Node_22562260    350.00     0          16.40      15.24      0          0
T28-05           ?                Node_22602262    200.00     0          15.24      14.50      0          0
T27-20           ?                Node_22622263    195.00     0          14.50      14.05      0          0
T27-15           ?                Node_22632264    195.00     0          14.05      13.40      0          0
T27-10           ?                Node_22642265    165.00     0          13.40      11.68      0          0
T27-08           ?                Node_22652267    248.00     0          11.68      11.39      0          0
T27-04           ?                Node_22672269    280.00     0          11.60      10.05      0          0
T27-00           ?                Node_22692270    140.00     0          10.05      10.15      0          0
T26-40           ?                Node_22702272    175.00     0          10.15      9.90       0          0
T26-20           ?                Node_22722274    300.00     0          9.90       9.70       0          0
NMG3-0           ?                Node_22982272    436.00     0          16.30      13.00      0          0
2BOS-3           ?                Node_23062305    41.00      0          22.60      22.21      0          0
2BOS-2           ?                Node_23052304    25.00      0          22.21      22.05      0          0
2BOS-1           ?                Node_23042066    84.00      0          21.55      21.00      0          0
BAS2BL           1.050L           2BOS.5           250.00     0          23.70      23.30      0          0
2BOS-5           ?                Node_23162313    75.00      0          23.30      23.00      0          0
G14-50           Node_50          Node_23392135    340.00     0          34.31      33.36      0          0
PH8-05           ?                Node_23702379    281.50     0          29.56      27.36      0          0
PH9-25           ?                Node_23192370    223.00     0          30.70      29.56      0          0
L10-60           Node_60          Node_2423644     980.00     0.0350     42.00      36.16      0          0
L10-70           Node_70          Node_24252423    550.00     0.0350     46.00      42.00      0          0
L20-10           ?                Node_24272425    240.00     0.0350     48.00      46.00      0          0
L10-80           Node_80          Node_24292425    850.00     0.0350     55.50      46.00      0          0
B34-00           ?                Node_2431773     950.00     0.0350     63.00      41.31      0          0
B19-10           B21.00           82.00T           287.84     0          35.80      35.05      0          0
P2-900           Node_900         Node_24612464    263.00     0.0140     -0.30      -0.16      0          0
P2-180           Node_180         Node_24692474    242.00     0.0140     -0.07      -0.53      0          0
P8-200           Node_200         Node_24572458    137.00     0.0140     0.73       0.72       0          0
P1-000           ?                Node_24742475    161.00     0.0140     -0.02      -1.00      0          0
P7-200           Node_200         Node_24582480    184.00     0          0.70       0.88       0          0
P2-200           Node_200         Node_24642469    150.00     0.0140     -0.10      -0.07      0          0
BF45-1           ?                Node_24882469    150.00     0          0.92       0.39       0          0
P6-100           Node_100         Node_24802461    160.60     0          0.37       0.32       0          0
T22-50           Node_50          Node_25122508    251.00     0          8.15       9.78       0          0
T21-00           ?                Node_25082506    150.00     0          9.33       7.65       0          0
T20-00           ?                Node_25062503    177.00     0          7.22       6.20       0          0
F2-344           Node_344         Node_25292525    331.00     0          13.62      12.06      0          0
F2-280           Node_280         Node_25252521    308.60     0          12.06      9.83       0          0
F2-252           Node_252         Node_25212520    145.00     0          9.83       9.23       0          0
F2-100           Node_100         Node_25202506    150.00     0          9.23       8.00       0          0
F2-470           Node_470         Node_25512529    328.00     0          15.37      13.62      0          0
C2-800           Node_800         Node_25702567    212.00     0          14.44      13.22      0          0
C1-500           Node_500         Node_25672564    191.80     0          13.20      11.85      0          0
C1-300           Node_300         Node_25642561    245.00     0          11.85      9.68       0          0
C1-020           ?                Node_25612512    150.00     0          9.68       9.00       0          0
C3-900           Node_900         Node_25882571    253.80     0          17.09      15.33      0          0
C4-800           Node_800         Node_25982588    361.00     0          19.26      17.09      0          0
C5-980           Node_980         Node_26082598    153.00     0          20.27      19.42      0          0
Mils-1           ?                Node_26112612    180.00     0          13.83      10.41      0          0