;; SWMM5 .inp converted from XPSWMM .xp file
;; Generated by XPSWMM Card Reader
;; Source format: XP_CARD | Original title: Allen Watershed - 10yr/24hr Storm Event

[TITLE]
;;Project Title/Notes
Allen Watershed - 10yr/24hr Storm Event

[OPTIONS]
FLOW_UNITS           CFS
INFILTRATION         HORTON
FLOW_ROUTING         DYNWAVE
LINK_OFFSETS         DEPTH
MIN_SLOPE            0.0
ALLOW_PONDING        NO
SKIP_STEADY_STATE    NO
ROUTING_STEP         00:00:15
VARIABLE_STEP        0.75
INERTIAL_DAMPING     PARTIAL
NORMAL_FLOW_LIMITED  BOTH
MAX_TRIALS           50

[JUNCTIONS]
;;Name           Elev       MaxDepth   InitDepth  SurDepth   Aponded
;;-------------- ---------- ---------- ---------- ---------- ----------
09204000D1       772.40     0          0          0          0
09204000D2       777.49     0          0          0          0
09204000D3       769.86     0          0          0          0
09204001R0       774.29     0          0          0          0
09204001D1       774.32     0          0          0          0
09204002R0       777.09     0          0          0          0
09204003R0       779.94     0          0          0          0
09204004R0       779.38     0          0          0          0
09204005R0       779.39     0          0          0          0
09204006R0       781.74     0          0          0          0
09292001R0       786.66     0          0          0          0
09292001D1       790.77     0          0          0          0
09292001D2       790.72     0          0          0          0
09292001D3       791.09     0          0          0          0
09292002R0       795.47     0          0          0          0
09292002D1       793.29     0          0          0          0
09292003R0       793.67     0          0          0          0
09292004R0       796.84     0          0          0          0
09292004D1       797.97     0          0          0          0
09292004D2       796.81     0          0          0          0
09292005R0       798.04     0          0          0          0
09292005D1       802.34     0          0          0          0
09292005D2       802.41     0          0          0          0
09292006R0       809.22     0          0          0          0
09292006D1       808.88     0          0          0          0
09292006D2       808.10     0          0          0          0
09294001R0       808.03     0          0          0          0
09294001D1       805.87     0          0          0          0
09294002R0       805.70     0          0          0          0
09294003R0       807.62     0          0          0          0
09294004R0       809.04     0          0          0          0
09294005R0       811.11     0          0          0          0
09294006R0       814.87     0          0          0          0
09294007R0       816.55     0          0          0          0
09294008R0       817.10     0          0          0          0
09321000D1       821.81     0          0          0          0
09321001R0       822.51     0          0          0          0
09321002R0       827.69     0          0          0          0
09321003R0       828.33     0          0          0          0
09321004R0       828.85     0          0          0          0
09321005R0       830.48     0          0          0          0
09321006R0       833.38     0          0          0          0
09321007R0       834.86     0          0          0          0
09321008R0       841.53     0          0          0          0
09324000D1       848.26     0          0          0          0
09324000D2       852.74     0          0          0          0
09324000D3       852.00     0          0          0          0
09324000D4       852.68     0          0          0          0
09324000D5       854.28     0          0          0          0
09324000D6       854.78     0          0          0          0
09324000D7       855.00     0          0          0          0
09324000D8       855.68     0          0          0          0
09324000D9       858.71     0          0          0          0
09324000DA       858.15     0          0          0          0
09324000DB       876.31     0          0          0          0
09324001R0       876.63     0          0          0          0
09324001D1       874.36     0          0          0          0
09324002R0       873.43     0          0          0          0
09324003R0       882.13     0          0          0          0
09323001R0       883.78     0          0          0          0
09323002R0       892.98     0          0          0          0
09323003R0       895.80     0          0          0          0
09323004R0       900.08     0          0          0          0
09323005R0       903.21     0          0          0          0
09323006R0       901.43     0          0          0          0
09323007R0       903.67     0          0          0          0
09323008R0       908.41     0          0          0          0
09314001R0       911.82     0          0          0          0
09314002R0       912.99     0          0          0          0
09324004R0       872.99     0          0          0          0
09323009R0       881.67     0          0          0          0
09323010R0       888.75     0          0          0          0
09323011R0       893.84     0          0          0          0
09323012R0       895.29     0          0          0          0
09323013R0       901.00     0          0          0          0
09323014R0       898.39     0          0          0          0
09323015R0       900.73     0          0          0          0
09322001R0       892.61     0          0          0          0
09322002R0       893.80     0          0          0          0
09322003R0       895.27     0          0          0          0
09322004R0       897.24     0          0          0          0
09292007R0       796.03     0          0          0          0
09292008R0       805.64     0          0          0          0
09292009R0       812.94     0          0          0          0
09292010R0       827.62     0          0          0          0
09203001R0       835.34     0          0          0          0
09203002R0       842.68     0          0          0          0
09203003R0       851.05     0          0          0          0
09203004R0       854.39     0          0          0          0
09203005R0       855.67     0          0          0          0
09203006R0       860.46     0          0          0          0
09203007R0       865.46     0          0          0          0
09203008R0       871.27     0          0          0          0
09203009R0       875.30     0          0          0          0
09203010R0       883.87     0          0          0          0
09203011R0       886.83     0          0          0          0
09203012R0       894.02     0          0          0          0
09203013R0       900.81     0          0          0          0
09301002R0       836.96     0          0          0          0
09301003R0       840.13     0          0          0          0
09301004R0       846.22     0          0          0          0
09301005R0       847.22     0          0          0          0
09301006R0       856.00     0          0          0          0
09301007R0       860.37     0          0          0          0
09194001R0       860.89     0          0          0          0
09194002R0       861.21     0          0          0          0
09194003R0       862.87     0          0          0          0
09194004R0       863.52     0          0          0          0
09194005R0       862.50     0          0          0          0
09194006R0       871.86     0          0          0          0
09194007R0       872.46     0          0          0          0
09194008R0       873.71     0          0          0          0
09194009R0       876.06     0          0          0          0
09194010R0       874.23     0          0          0          0
09194011R0       872.96     0          0          0          0
09194012R0       873.31     0          0          0          0
09194013R0       875.60     0          0          0          0
09194014R0       874.50     0          0          0          0
09194015R0       877.86     0          0          0          0
09194016R0       880.40     0          0          0          0
09194017R0       885.67     0          0          0          0
09292011R0       809.73     0          0          0          0
09292012R0       828.47     0          0          0          0
09301008R0       829.07     0          0          0          0
09301009R0       850.31     0          0          0          0
09301010R0       839.15     0          0          0          0
09301010D1       842.61     0          0          0          0
09301011R0       867.75     0          0          0          0
09301012R0       869.74     0          0          0          0
09301013R0       872.50     0          0          0          0
09301014R0       891.50     0          0          0          0
09302001R0       892.58     0          0          0          0
09302002R0       889.67     0          0          0          0
09302003R0       898.77     0          0          0          0
09302004R0       896.89     0          0          0          0
09302005R0       896.55     0          0          0          0
09302006R0       901.12     0          0          0          0
09302007R0       906.23     0          0          0          0
09302008R0       918.05     0          0          0          0
09302009R0       928.06     0          0          0          0
09302010R0       927.94     0          0          0          0
09302011R0       911.26     0          0          0          0
09302012R0       909.89     0          0          0          0
09302013R0       908.12     0          0          0          0
09302014R0       912.87     0          0          0          0
09193001R0       923.27     0          0          0          0
09193002R0       923.06     0          0          0          0
09193003R0       924.18     0          0          0          0
09193004R0       923.04     0          0          0          0
09193005R0       923.95     0          0          0          0
09302015R0       909.55     0          0          0          0
09302016R0       903.06     0          0          0          0
09302017R0       904.19     0          0          0          0
09251001R0       918.54     0          0          0          0
09251002R0       925.92     0          0          0          0
09292013R0       804.71     0          0          0          0
09292014R0       806.37     0          0          0          0
09292015R0       809.34     0          0          0          0
09292016R0       818.76     0          0          0          0
09292017R0       823.49     0          0          0          0
09301015R0       830.09     0          0          0          0
09304001R0       830.32     0          0          0          0
09304002R0       834.60     0          0          0          0
09304002D1       837.02     0          0          0          0
09304003R0       849.65     0          0          0          0
09304004R0       877.94     0          0          0          0
09304005R0       884.30     0          0          0          0
09304006R0       882.58     0          0          0          0
09304007R0       881.61     0          0          0          0
09304008R0       871.76     0          0          0          0
09304009R0       872.14     0          0          0          0
09304010R0       876.26     0          0          0          0
09303001R0       887.90     0          0          0          0
09303002R0       893.87     0          0          0          0
09303003R0       892.53     0          0          0          0
09303004R0       889.61     0          0          0          0
09303005R0       892.61     0          0          0          0
09303006R0       894.60     0          0          0          0
09303007R0       897.03     0          0          0          0
09303008R0       898.27     0          0          0          0
09303009R0       900.23     0          0          0          0
09303010R0       903.61     0          0          0          0
09303011R0       904.05     0          0          0          0
09303012R0       917.92     0          0          0          0
09303013R0       917.37     0          0          0          0
09303014R0       923.56     0          0          0          0
09303015R0       922.34     0          0          0          0
09303016R0       923.91     0          0          0          0
09303017R0       922.60     0          0          0          0
09294009R0       808.48     0          0          0          0
09294010R0       807.60     0          0          0          0
09294011R0       808.46     0          0          0          0
09294012R0       810.13     0          0          0          0
09293001R0       820.62     0          0          0          0
09293002R0       817.50     0          0          0          0
09293003R0       821.89     0          0          0          0
09293004R0       824.56     0          0          0          0
09293005R0       830.22     0          0          0          0
09293006R0       831.69     0          0          0          0
09293007R0       849.50     0          0          0          0
09293008R0       845.73     0          0          0          0
09293009R0       845.93     0          0          0          0
09293010R0       858.85     0          0          0          0
09293011R0       858.43     0          0          0          0
09293012R0       866.76     0          0          0          0
09293013R0       866.92     0          0          0          0
09293014R0       875.09     0          0          0          0
09293015R0       869.85     0          0          0          0
09293016R0       870.83     0          0          0          0
09293017R0       871.77     0          0          0          0
09293018R0       873.50     0          0          0          0
09293019R0       888.32     0          0          0          0
09304011R0       888.99     0          0          0          0
09304012R0       887.74     0          0          0          0
09304013R0       888.56     0          0          0          0
09311001R0       895.88     0          0          0          0
09311002R0       891.00     0          0          0          0
09311003R0       902.53     0          0          0          0
09311004R0       905.19     0          0          0          0
09321010R0       878.35     0          0          0          0
09321009R0       885.77     0          0          0          0
09321028R0       847.58     0          0          0          0
09321027R0       844.32     0          0          0          0
09321026R0       842.61     0          0          0          0
09321025R0       840.17     0          0          0          0
09321024R0       837.08     0          0          0          0
09321023R0       835.52     0          0          0          0
09321022R0       834.52     0          0          0          0
09321021R0       831.99     0          0          0          0
09321020R0       828.39     0          0          0          0
09321019R0       827.69     0          0          0          0
09321018R0       829.25     0          0          0          0
09321017R0       828.67     0          0          0          0
09321016R0       825.54     0          0          0          0
09321015R0       826.33     0          0          0          0
09321014R0       824.68     0          0          0          0
09321013R0       823.41     0          0          0          0
09321012R0       823.70     0          0          0          0
09321011R0       821.68     0          0          0          0
09321032R0       828.90     0          0          0          0
09321031R0       824.19     0          0          0          0
09321030R0       823.42     0          0          0          0
09321029R0       822.38     0          0          0          0
09321035R0       818.32     0          0          0          0
09321034R0       818.27     0          0          0          0
09321037R0       822.85     0          0          0          0
09321036R0       822.30     0          0          0          0
09294014R0       813.41     0          0          0          0
09294013R0       817.86     0          0          0          0
09312019R0       936.19     0          0          0          0
09312018R0       934.39     0          0          0          0
09312017R0       932.55     0          0          0          0
09312016R0       929.77     0          0          0          0
09312015R0       930.85     0          0          0          0
09312014R0       929.31     0          0          0          0
09312013R0       928.96     0          0          0          0
09312012R0       924.66     0          0          0          0
09312011R0       923.96     0          0          0          0
09312010R0       923.47     0          0          0          0
09312009R0       923.29     0          0          0          0
09312008R0       923.62     0          0          0          0
09312007R0       922.80     0          0          0          0
09312006R0       922.28     0          0          0          0
09312005R0       917.81     0          0          0          0
09312004R0       916.88     0          0          0          0
09312003R0       916.38     0          0          0          0
09312002R0       916.71     0          0          0          0
09312001R0       917.55     0          0          0          0
09303020R0       911.60     0          0          0          0
09303019R0       913.80     0          0          0          0
09303018R0       916.01     0          0          0          0
09312020R0       942.02     0          0          0          0
09312025R0       919.53     0          0          0          0
09312024R0       919.52     0          0          0          0
09312023R0       918.90     0          0          0          0
09312022R0       913.20     0          0          0          0
09312021R0       916.42     0          0          0          0

[CONDUITS]
;;Name           From             To               Length     Roughness  InOffset   OutOffset  InitFlow   MaxFlow
;;-------------- ---------------- ---------------- ---------- ---------- ---------- ---------- ---------- ----------
09204000C2       09204000D2       09204000D1       270.00     0.0350     761.30     760.40     0          0
09204000C3       09204000D3       09204000D2       91.00      0.0150     761.30     761.30     0          0
09204001C0       09204001R0       09204000D3       140.00     0.0200     761.74     761.30     0          0
09204001C1       09204001D1       09204001R0       147.00     0.0200     762.20     761.74     0          0
09204002C0       09204002R0       09204001D1       32.00      0.0200     762.41     762.20     0          0
09204003C0       09204003R0       09204002R0       308.00     0.0200     764.48     762.41     0          0
09204004C0       09204004R0       09204003R0       345.00     0.0200     766.79     764.48     0          0
09204005C0       09204005R0       09204004R0       298.00     0.0200     768.78     766.79     0          0
09204006C0       09204006R0       09204005R0       393.00     0.0200     771.40     768.78     0          0
09292001C0       09292001R0       09204006R0       560.00     0.0200     775.16     771.40     0          0
09292001C1       09292001D1       09292001R0       530.00     0.0200     778.75     775.16     0          0
09292001C2       09292001D2       09292001D1       70.00      0.0200     779.22     778.75     0          0
09292001C3       09292001D3       09292001D2       17.00      0.0200     780.09     779.96     0          0
09292002C0       09292002R0       09292001D3       73.00      0.0200     780.64     780.09     0          0
09292002C1       09292002D1       09292002R0       350.00     0.0200     783.09     780.64     0          0
09292003C0       09292003R0       09292002D1       83.00      0.0200     783.42     783.09     0          0
09292004C0       09292004R0       09292003R0       307.00     0.0200     784.65     783.42     0          0
09292004C1       09292004D1       09292004R0       37.00      0.0150     786.89     786.52     0          0
09292004C2       09292004D2       09292004D1       83.00      0.0200     787.74     786.89     0          0
09292005C0       09292005R0       09292004D2       280.00     0.0150     790.54     787.74     0          0
09292005C1       09292005D1       09292005R0       130.00     0.0150     791.84     790.54     0          0
09292005C2       09292005D2       09292005D1       101.00     0.0200     792.90     791.89     0          0
09292006C0       09292006R0       09292005D2       167.00     0.0150     794.02     792.90     0          0
09292006C1       09292006D1       09292006R0       146.00     0.0150     795.00     794.02     0          0
09292006C2       09292006D2       09292006D1       37.00      0.0150     795.17     795.00     0          0
09294001C0       09294001R0       09292006D2       55.00      0.0150     795.52     795.17     0          0
09294001C1       09294001D1       09294001R0       112.00     0.0150     796.23     795.52     0          0
09294002C0       09294002R0       09294001D1       165.00     0.0200     797.18     796.23     0          0
09294003C0       09294003R0       09294002R0       230.00     0.0200     798.50     797.18     0          0
09294004C0       09294004R0       09294003R0       361.00     0.0200     800.56     798.50     0          0
09294005C0       09294005R0       09294004R0       364.00     0.0200     802.65     800.56     0          0
09294006C0       09294006R0       09294005R0       602.00     0.0200     805.90     802.65     0          0
09294007C0       09294007R0       09294006R0       255.00     0.0200     807.28     805.90     0          0
09294008C0       09294008R0       09294007R0       530.00     0.0200     809.51     807.28     0          0
09321000C1       09321000D1       09294008R0       600.00     0.0200     811.18     809.51     0          0
09321001C0       09321001R0       09321000D1       75.00      0.0150     811.50     811.18     0          0
09321002C0       09321002R0       09321001R0       820.00     0.0150     815.69     812.02     0          0
09321003C0       09321003R0       09321002R0       23.00      0.0150     816.97     816.82     0          0
09321004C0       09321004R0       09321003R0       179.00     0.0150     818.13     816.97     0          0
09321005C0       09321005R0       09321004R0       578.00     0.0150     821.54     818.13     0          0
09321006C0       09321006R0       09321005R0       420.00     0.0150     824.02     821.54     0          0
09321007C0       09321007R0       09321006R0       400.00     0.0150     826.02     824.02     0          0
09321008C0       09321008R0       09321007R0       410.00     0.0150     832.84     826.02     0          0
09324000C1       09324000D1       09321008R0       179.00     0.0150     840.26     832.84     0          0
09324000C3       09324000D3       09324000D2       18.00      0.0150     845.46     845.32     0          0
09324000C4       09324000D4       09324000D3       151.00     0.0350     846.67     845.46     0          0
09324000C5       09324000D5       09324000D4       42.00      0.0150     847.28     846.67     0          0
09324000C6       09324000D6       09324000D5       35.00      0.0350     847.78     847.28     0          0
09324000C7       09324000D7       09324000D6       245.00     0.0350     849.84     848.37     0          0
09324000C8       09324000D8       09324000D7       6.00       0.0150     849.88     849.84     0          0
09324000C9       09324000D9       09324000D8       55.00      0.0350     850.21     849.88     0          0
09324000CA       09324000DA       09324000D9       24.00      0.0150     850.45     850.21     0          0
09324000CB       09324000DB       09324000DA       381.00     0.0150     854.26     850.45     0          0
09324001C0       09324001R0       09324000DB       195.00     0.0150     856.21     854.26     0          0
09324001C1       09324001D1       09324001R0       349.00     0.0150     859.70     856.21     0          0
09324002C0       09324002R0       09324001D1       306.00     0.0150     862.76     859.70     0          0
09324003C0       09324003R0       09324002R0       92.00      0.0150     868.00     863.69     0          0
09323001C0       09323001R0       09324003R0       85.00      0.0150     870.41     868.00     0          0
09323002C0       09323002R0       09323001R0       395.00     0.0150     871.73     870.41     0          0
09323003C0       09323003R0       09323002R0       440.00     0.0150     877.88     871.73     0          0
09323004C0       09323004R0       09323003R0       180.00     0.0150     879.18     877.88     0          0
09323005C0       09323005R0       09323004R0       225.00     0.0150     881.47     879.18     0          0
09323006C0       09323006R0       09323005R0       620.00     0.0150     890.00     881.47     0          0
09323007C0       ?                ?                435.00     0.0150     895.19     890.00     0          0
09323008C0       09323008R0       09323007R0       805.00     0.0150     900.40     895.19     0          0
09314001C0       09314001R0       09323008R0       180.00     0.0150     902.02     900.40     0          0
09314002C0       09314002R0       09314001R0       125.00     0.0150     902.18     902.02     0          0
09323009C0       09323009R0       09324004R0       115.00     0.0150     868.70     868.30     0          0
09323010C0       09323010R0       09323009R0       240.00     0.0150     869.48     868.70     0          0
09323011C0       09323011R0       09323010R0       265.00     0.0150     872.51     869.48     0          0
09323012C0       09323012R0       09323011R0       290.00     0.0150     876.02     872.51     0          0
09323013C0       09323013R0       09323012R0       310.00     0.0150     879.12     876.02     0          0
09323014C0       09323014R0       09323013R0       114.00     0.0150     881.16     879.12     0          0
09323015C0       09323015R0       09323014R0       100.00     0.0150     884.15     881.16     0          0
09322001C0       09322001R0       09323015R0       290.00     0.0150     885.46     884.15     0          0
09322002C0       09322002R0       09322001R0       320.00     0.0150     886.68     885.46     0          0
09322003C0       09322003R0       09322002R0       120.00     0.0150     887.16     886.68     0          0
09322004C0       09322004R0       09322003R0       335.00     0.0150     890.14     887.16     0          0
09292007C0       09292007R0       09292003R0       250.00     0.0150     785.72     784.49     0          0
09292008C0       09292008R0       09292007R0       700.00     0.0150     790.40     785.72     0          0
09292009C0       09292009R0       09292008R0       630.00     0.0150     802.01     790.40     0          0
09292010C0       09292010R0       09292009R0       320.00     0.0150     813.03     802.01     0          0
09203001C0       09203001R0       09292010R0       610.00     0.0150     825.51     813.03     0          0
09203002C0       09203002R0       09203001R0       280.00     0.0150     836.00     825.51     0          0
09203003C0       09203003R0       09203002R0       300.00     0.0150     841.00     836.00     0          0
09203004C0       09203004R0       09203003R0       270.00     0.0150     846.40     841.00     0          0
09203005C0       09203005R0       09203004R0       130.00     0.0150     849.50     846.40     0          0
09203006C0       09203006R0       09203005R0       70.00      0.0150     852.76     849.50     0          0
09203007C0       09203007R0       09203006R0       140.00     0.0150     857.44     852.76     0          0
09203008C0       09203008R0       09203007R0       45.00      0.0150     858.57     857.44     0          0
09203009C0       09203009R0       09203008R0       200.00     0.0150     861.90     858.57     0          0
09203010C0       09203010R0       09203009R0       290.00     0.0150     868.38     861.90     0          0
09203011C0       09203011R0       09203010R0       100.00     0.0150     870.06     868.38     0          0
09203012C0       09203012R0       09203011R0       120.00     0.0150     877.53     870.06     0          0
09203013C0       09203013R0       09203012R0       140.00     0.0150     884.22     877.53     0          0
09301003C0       09301003R0       09301002R0       180.00     0.0150     831.78     831.00     0          0
09301004C0       09301004R0       09301003R0       270.00     0.0150     837.21     831.78     0          0
09301005C0       09301005R0       09301004R0       60.00      0.0150     838.50     837.21     0          0
09301006C0       09301006R0       09301005R0       255.00     0.0150     842.31     838.50     0          0
09301007C0       09301007R0       09301006R0       285.00     0.0150     847.49     842.31     0          0
09194001C0       09194001R0       09301007R0       45.00      0.0150     848.31     847.49     0          0
09194002C0       09194002R0       09194001R0       34.00      0.0150     855.18     855.05     0          0
09194003C0       09194003R0       09194002R0       66.00      0.0150     855.71     855.18     0          0
09194004C0       09194004R0       09194003R0       42.00      0.0150     856.05     855.71     0          0
09194005C0       09194005R0       09194004R0       108.00     0.0150     856.51     856.05     0          0
09194006C0       09194006R0       09194005R0       169.00     0.0150     857.18     856.51     0          0
09194007C0       09194007R0       09194006R0       199.00     0.0150     857.77     857.18     0          0