;; SWMM5 .inp converted from XPSWMM .xp file
;; Generated by XPSWMM Card Reader
;; Source format: XP_CARD | Original title: Test

[TITLE]
;;Project Title/Notes
Test

[OPTIONS]
FLOW_UNITS           CFS
INFILTRATION         HORTON
FLOW_ROUTING         DYNWAVE
LINK_OFFSETS         DEPTH
MIN_SLOPE            0.0
ALLOW_PONDING        NO
SKIP_STEADY_STATE    NO
ROUTING_STEP         00:00:60
VARIABLE_STEP        0.75
INERTIAL_DAMPING     PARTIAL
NORMAL_FLOW_LIMITED  BOTH
MAX_TRIALS           100

[JUNCTIONS]
;;Name           Elev       MaxDepth   InitDepth  SurDepth   Aponded
;;-------------- ---------- ---------- ---------- ---------- ----------
0                615.10     0          0          0          0
0                612.10     0          0          0          0
0                607.90     0          0          0          0
0                611.46     0          0          0          0
0                601.60     0          0          0          0
0                600.80     0          0          0          0
0                604.00     0          0          0          0
0                591.50     0          0          0          0
0                593.60     0          0          0          0
0                593.50     0          0          0          0
0                594.70     0          0          0          0
0                612.60     0          0          0          0
0                588.30     0          0          0          0
0                588.64     0          0          0          0
0                595.00     0          0          0          0
0                608.40     0          0          0          0
0                608.00     0          0          0          0
0                608.00     0          0          0          0
0                588.30     0          0          0          0
0                586.00     0          0          0          0
0                582.27     0          0          0          0
0                611.50     0          0          0          0
0                633.00     0          0          0          0
0                590.00     0          0          0          0
0                599.50     0          0          0          0
0                594.51     0          0          0          0
0                593.86     0          0          0          0
0                594.00     0          0          0          0
0                594.00     0          0          0          0
0                593.98     0          0          0          0
0                593.86     0          0          0          0
0                595.00     0          0          0          0

[STORAGE]
;;Name           Elev       MaxDepth   InitDepth  Shape      Curve/Params
;;-------------- ---------- ---------- ---------- ---------- ----------
0                611.50     -24.70     0          FUNCTIONAL 540.00 0          0
0                633.00     0          0          FUNCTIONAL 86700.00 0          0
0                633.00     0          0          FUNCTIONAL 57800.00 0          0
0                633.00     0          0          FUNCTIONAL 9.42 0          0

[CONDUITS]
;;Name           From             To               Length     Roughness  InOffset   OutOffset  InitFlow   MaxFlow
;;-------------- ---------------- ---------------- ---------- ---------- ---------- ---------- ---------- ----------
202              0                0                2802.48    0.0150     572.66     571.82     0          0
204              0                0                2592.04    0.0150     573.44     572.66     0          0
201              0                0                684.22     0.0150     571.82     571.62     0          0
206              0                0                1023.30    0.0150     571.62     571.31     0          0
208              0                0                181.64     0.0150     571.31     571.25     0          0
210              0                0                603.70     0.0150     571.25     571.07     0          0
212              0                0                841.79     0.0150     571.07     570.82     0          0
214              0                0                140.74     0.0150     570.82     570.77     0          0
216              0                0                306.89     0.0150     570.77     570.67     0          0
218              0                0                290.86     0.0150     570.67     570.58     0          0
224              0                0                2934.83    0.0150     577.84     575.78     0          0
226              0                0                4080.00    0.0150     572.28     570.51     0          0
228              0                0                690.00     0.0150     573.64     573.28     0          0
220              0                0                450.00     0.0150     570.45     570.25     0          0
249              0                0                100.00     0.0150     584.59     584.56     0          0
247              0                0                3240.00    0.0150     584.56     575.78     0          0
251              0                0                300.00     0.0150     575.78     574.97     0          0
260              0                0                50.00      0.0150     570.50     570.35     0          0
270              0                0                25.50      0.0140     575.96     575.93     0          0
265              0                0                33.00      0.0140     628.00     627.00     0          0
287              0                0                623.60     0.0140     590.18     586.85     0          0
332              0                0                1142.92    0.0110     586.85     582.42     0          0
291              0                0                93.48      0.0140     581.70     579.75     0          0
297              0                0                50.00      0.0140     590.20     590.18     0          0
289              0                0                0          0          0          0          0          0
336.1            0                0                33.00      0.0140     586.85     586.75     0          0
334              0                0                2400.00    0.0140     586.75     579.55     0          0

[ORIFICES]
;;Name           From             To               Type       Offset     Qcoeff     Gated    CloseTime
;;-------------- ---------------- ---------------- ---------- ---------- ---------- -------- ----------
253.1            0                0                SIDE       0          0.650      NO       0
Overflow         0                0                SIDE       628.00     0.650      NO       0

[WEIRS]
;;Name           From             To               Type       CrestHt    Qcoeff     Gated    EndCon   EndCoeff   Surcharge
;;-------------- ---------------- ---------------- ---------- ---------- ---------- -------- -------- ---------- ----------
246.1            0                0                TRANSVERSE 590.90     1.840      NO       0        0          YES
248.1            0                0                TRANSVERSE 590.90     1.840      NO       0        0          YES
256              0                0                TRANSVERSE 582.27     1.840      NO       0        0          YES
206              0                0                V-NOTCH    574.00     1.840      NO       0        0          YES
281              0                0                TRANSVERSE 629.00     1.840      NO       0        0          YES

[PUMPS]
;;Name           From             To               PumpCurve  Status   Startup    Shutoff
;;-------------- ---------------- ---------------- ---------- -------- ---------- ----------
262              0                0                PC_262     ON       0          0         
232              0                0                PC_232     ON       0          0         

[CURVES]
;;Name           Type       X-Value    Y-Value
;;-------------- ---------- ---------- ----------
PC_262           Pump1      0          0
;
PC_232           Pump1      0          0
;

[XSECTIONS]
;;Link           Shape        Geom1      Geom2      Geom3      Geom4      Barrels
;;-------------- ------------ ---------- ---------- ---------- ---------- ----------
202              CIRCULAR     8.00       0          0          0          1
204              CIRCULAR     8.00       0          0          0          1
201              CIRCULAR     8.00       0          0          0          1
206              CIRCULAR     7.00       0          0          0          1
208              CIRCULAR     7.00       0          0          0          1
210              CIRCULAR     7.00       0          0          0          1
212              CIRCULAR     7.00       0          0          0          1
214              CIRCULAR     7.00       0          0          0          1
216              CIRCULAR     7.00       0          0          0          1
218              CIRCULAR     7.00       0          0          0          1
224              CIRCULAR     7.00       0          0          0          1
226              CIRCULAR     6.00       0          0          0          1
228              CIRCULAR     5.00       0          0          0          1
220              CIRCULAR     6.00       0          0          0          1
249              CIRCULAR     8.25       0          0          0          1
247              CIRCULAR     8.25       0          0          0          1
251              CIRCULAR     8.25       0          0          0          1
260              CIRCULAR     6.00       0          0          0          1
270              CIRCULAR     4.50       0          0          0          1
265              CIRCULAR     4.00       0          0          0          1
287              CIRCULAR     3.00       0          0          0          1
332              CIRCULAR     2.50       0          0          0          1
291              CIRCULAR     3.00       0          0          0          1
297              CIRCULAR     3.00       0          0          0          1
289              CIRCULAR     0          0          0          0          1
336.1            CIRCULAR     0.16       0          0          0          1
334              CIRCULAR     7.00       0          0          0          1
253.1            RECT_CLOSED  0          0          0          0          
Overflow         RECT_CLOSED  632.00     0          0          0          
246.1            RECT_OPEN    0          13.00      0          0          
248.1            RECT_OPEN    0          8.25       0          0          
256              RECT_OPEN    0          10.00      0          0          
206              RECT_OPEN    0          15.00      0          0          
281              RECT_OPEN    0          15.00      0          0          

[LOSSES]
;;Link           Inlet      Outlet     Average    Flap Gate
;;-------------- ---------- ---------- ---------- ----------
202              0          0          0          NO
204              0          0          0          NO
201              0          0          0          NO
206              0          0          0          NO
208              0          0          0          NO
210              0          0          0          NO
212              0          0          0          NO
214              0          0          0          NO
216              0          0          0          NO
218              0          0          0          NO
224              0          0          0          NO
226              0          0          0          NO
228              0          0          0          NO
220              0          0          0          NO
249              0          0          0          NO
247              0          0          0          NO
251              0          0          0          NO
260              0          0          0          NO
270              0          0          0          NO
265              0          0          0          NO
287              0          0          0          NO
332              0          0          0          NO
291              0          0          0          NO
297              0          0          0          NO
289              0          0          0          NO
336.1            0          0          0          NO
334              0          0          0          NO

[COORDINATES]
;;Node           X-Coord            Y-Coord
;;-------------- ------------------ ------------------
0                139.11             48.31             
0                72.45              47.36             
0                -1.69              47.94             
0                139.68             108.00            
0                139.58             181.00            
0                117.45             196.41            
0                88.88              196.09            
0                88.63              231.17            
0                76.62              241.14            
0                53.07              240.81            
0                52.87              283.51            
0                -23.24             47.16             
0                23.33              282.98            
0                -24.19             282.98            
0                67.75              284.31            
0                18.22              33.49             
0                17.71              46.12             
0                17.97              15.42             
0                15.25              276.05            
0                15.90              304.66            
0                15.90              321.83            
0                155.98             107.92            
0                170.34             107.58            
0                201.54             107.16            
0                78.40              284.90            
0                134.26             198.31            
0                201.24             132.89            
0                200.93             155.81            
0                171.08             155.66            
0                170.96             193.29            
0                170.84             286.53            
0                151.13             301.94            
0                187.83             155.80            
0                170.83             208.98            
0                181.33             215.47            
0                181.52             316.05            

[MAP]
DIMENSIONS -24.19 15.42 201.54 321.83
Units      None

[REPORT]
INPUT            YES
SUBCATCHMENTS    ALL
NODES            ALL
LINKS            ALL



