;; SWMM5 .inp converted from XPSWMM .xp file
;; Generated by XPSWMM Card Reader
;; Source format: XP_CARD | Original title: East Park Ave. - Project No. 17003.00

[TITLE]
;;Project Title/Notes
East Park Ave. - Project No. 17003.00

[OPTIONS]
FLOW_UNITS           CFS
INFILTRATION         HORTON
FLOW_ROUTING         DYNWAVE
LINK_OFFSETS         DEPTH
MIN_SLOPE            0.0
ALLOW_PONDING        NO
SKIP_STEADY_STATE    NO
ROUTING_STEP         00:00:05
VARIABLE_STEP        0.75
INERTIAL_DAMPING     PARTIAL
NORMAL_FLOW_LIMITED  BOTH
MAX_TRIALS           10
HEAD_TOLERANCE       0.0033

[JUNCTIONS]
;;Name           Elev       MaxDepth   InitDepth  SurDepth   Aponded
;;-------------- ---------- ---------- ---------- ---------- ----------
1010             90.50      0          0          0          0
1100             81.10      0          0          0          0
1160             82.10      0          0          0          0
1170             82.10      0          0          0          0
1110             88.90      0          0          0          0
1120             81.80      0          0          0          0
Outfall          81.80      0          0          0          0
1910             110.00     0          0          0          0
1440             115.00     0          0          0          0
1445             110.00     0          0          0          0
1465             117.00     0          0          0          0
1515             111.00     0          0          0          0
1480             94.00      0          0          0          0
1840             130.00     0          0          0          0
1885             99.50      0          0          0          0
1871             100.00     0          0          0          0
1865             119.50     0          0          0          0
1870             105.00     0          0          0          0
1846             117.00     0          0          0          0
1336             106.00     0          0          0          0
1740             99.00      0          0          0          0
1920             160.00     0          0          0          0
1340             190.00     0          0          0          0
1345             187.30     0          0          0          0
1350             168.00     0          0          0          0
1355             144.00     0          0          0          0
1364             142.00     0          0          0          0
1405             127.00     0          0          0          0
1561             172.00     0          0          0          0
1555             172.00     0          0          0          0
1376             175.00     0          0          0          0
1530             165.00     0          0          0          0
1535             165.00     0          0          0          0
1395             165.00     0          0          0          0
1540             149.30     0          0          0          0
1545             138.87     0          0          0          0
1550             132.85     0          0          0          0
1400             128.16     0          0          0          0
1556             125.19     0          0          0          0
1560             125.63     0          0          0          0
1410             120.00     0          0          0          0
1435             115.00     0          0          0          0
1815             135.00     0          0          0          0
1305             168.00     0          0          0          0
1306             160.00     0          0          0          0
1322             155.00     0          0          0          0
1326             146.00     0          0          0          0
1330             129.50     0          0          0          0
1331             128.50     0          0          0          0
1321             150.00     0          0          0          0
1335             114.00     0          0          0          0
1690             137.00     0          0          0          0
1755             182.00     0          0          0          0
1750             160.00     0          0          0          0
1590             197.00     0          0          0          0
1600             141.00     0          0          0          0
1585             196.00     0          0          0          0
1575             110.00     0          0          0          0
1725             186.00     0          0          0          0
1720             170.00     0          0          0          0
1715             150.00     0          0          0          0
1760             150.00     0          0          0          0
1730             133.00     0          0          0          0
1675             119.00     0          0          0          0
1610             135.00     0          0          0          0
1621             155.00     0          0          0          0
1566             95.50      0          0          0          0
1525             97.00      0          0          0          0
1734             95.00      0          0          0          0
PrkBrook         90.00      0          0          0          0
328              111.00     0          0          0          0
1916             120.00     0          0          0          0
1915             120.00     0          0          0          0
1901             131.36     0          0          0          0
351              106.00     0          0          0          0
358              140.00     0          0          0          0
359              140.00     0          0          0          0
360              145.00     0          0          0          0
368              120.00     0          0          0          0
369              136.00     0          0          0          0
370              134.00     0          0          0          0
1250             78.00      0          0          0          0
1181             100.00     0          0          0          0

[STORAGE]
;;Name           Elev       MaxDepth   InitDepth  Shape      Curve/Params
;;-------------- ---------- ---------- ---------- ---------- ----------
1140             98.00      -18.00     0          FUNCTIONAL 500.00 0          0
1050             99.00      -13.00     0          FUNCTIONAL 500.00 0          0
1020             96.00      0          0          FUNCTIONAL 1000.00 0          0
1055             99.00      -14.00     0          FUNCTIONAL 500.00 0          0
1070             99.00      -15.50     0          FUNCTIONAL 0 0          0
1080             85.00      0          0          FUNCTIONAL 0 0          0
1150             84.30      -4.30      0          FUNCTIONAL 500.00 0          0
1090             85.00      -5.00      0          FUNCTIONAL 500.00 0          0
1060             72.00      0          0          FUNCTIONAL 0 0          0
BlkLake          96.00      -6.00      5.46       FUNCTIONAL 0 0          0
1471             100.00     -12.00     0          FUNCTIONAL 43560.00 0          0
1425             187.00     0          0          FUNCTIONAL 0 0          0
Target           142.00     0          0          FUNCTIONAL 0 0          0
1360             128.00     -2.00      0          FUNCTIONAL 10000.00 0          0
1370             167.00     -1.00      0          FUNCTIONAL 0 0          0
1375             172.00     0          0          FUNCTIONAL 0 0          0
1380             167.00     -4.00      0          FUNCTIONAL 0 0          0
1390             184.00     0          0          FUNCTIONAL 0 0          0
1385             171.00     -2.00      0          FUNCTIONAL 0 0          0
1415             119.00     0          0          FUNCTIONAL 0 0          0
1420             115.00     0          0          FUNCTIONAL 0 0          0
1810             135.50     -1.00      0          FUNCTIONAL 0 0          0
1301             170.00     -4.00      0          FUNCTIONAL 100.00 0          0
1310             155.00     0          0          FUNCTIONAL 0 0          0
1325             140.00     0          0          FUNCTIONAL 0 0          0
1605             101.50     0          0          FUNCTIONAL 10000.00 0          0
1580             180.00     0          0          FUNCTIONAL 0 0          0
Govsqpond        97.00      -0.50      0          FUNCTIONAL 0 0          0
1615             186.00     0          0          FUNCTIONAL 0 0          0
1620             155.00     0          0          FUNCTIONAL 0 0          0
1695             100.50     0          0          FUNCTIONAL 10000.00 0          0
1570             101.00     -6.00      0          FUNCTIONAL 0 0          0
1300             170.00     0          0          FUNCTIONAL 0 0          0
1320             150.00     0          0          FUNCTIONAL 0 0          0
207-A            110.00     0          0          FUNCTIONAL 0 0          0
1905             110.00     0          0          FUNCTIONAL 0 0          0
AgComp           120.00     0          0          FUNCTIONAL 0 0          0
FlagBank         140.00     0          0          FUNCTIONAL 0 0          0
FoodLion         110.00     0          0          FUNCTIONAL 0 0          0
Richview         110.00     0          1.50       FUNCTIONAL 0 0          0
1900             140.00     0          0          FUNCTIONAL 25.00 0          0
349              106.00     0          0          FUNCTIONAL 0 0          0
361              135.00     0          0          FUNCTIONAL 25.00 0          0
362              136.00     -3.00      0          FUNCTIONAL 25.00 0          0
372              130.00     0          0          FUNCTIONAL 0 0          0
376              119.00     0          0          FUNCTIONAL 25.00 0          0
T9505            110.00     -10.00     0          FUNCTIONAL 500.00 0          0
T9005            100.00     0          0          FUNCTIONAL 1000.00 0          0
Richview         110.00     0          0          FUNCTIONAL 0 0          0
WestPond         90.00      0          0          FUNCTIONAL 0 0          0
Wetland          85.00      0          0          FUNCTIONAL 0 0          0
C.S.             85.00      0          0          FUNCTIONAL 100.00 0          0
1190             74.00      -3.50      3.02       FUNCTIONAL 0 0          0
1180             98.00      -20.00     0          FUNCTIONAL 0 0          0
BLK-Box          96.00      -8.71      0          FUNCTIONAL 5000.00 0          0
Richpark         110.00     -14.00     0          FUNCTIONAL 0 0          0
Richpark-save    110.00     -14.00     0.77       FUNCTIONAL 0 0          0
Richview-rev.    110.00     0          3.50       FUNCTIONAL 0 0          0
BlkLake-old      96.00      -6.00      5.46       FUNCTIONAL 0 0          0

[CONDUITS]
;;Name           From             To               Length     Roughness  InOffset   OutOffset  InitFlow   MaxFlow
;;-------------- ---------------- ---------------- ---------- ---------- ---------- ---------- ---------- ----------
3020             1140             1050             500.00     0          62.60      61.50      0          0
3030             1020             1050             1750.00    0          78.90      62.00      0          0
3035             1050             1055             750.00     0          61.50      60.50      0          0
3040             1055             1070             900.00     0          60.50      59.50      0          0
3050             30500            1080             100.00     0.0350     0          1.00       0          0
3060             1080             1150             510.00     0          59.00      55.40      0          0
3070             1150             1090             250.00     0          55.40      55.00      0          0
3080             3090             3100             50.00      0.0250     1.50       1.90       0          0
3140             1100             1160             640.00     0          53.50      50.00      0          0
3150             1160             1170             350.00     0          50.00      47.50      0          0
3160             1170             1110             460.00     0          47.50      46.80      0          0
3170             1110             1120             100.00     0          46.80      46.70      0          0
3180             1120             Outfall          450.00     0          46.70      45.70      0          0
3190             1060             1070             100.00     0.0150     62.30      60.00      0          0
3278             1440             1445             400.00     0.0350     104.00     101.90     0          0
3279             1445             BlkLake          1300.00    0.0350     101.90     78.50      0          0
3281             1465             BlkLake          1450.00    0.0550     110.00     80.00      0          0
3282             1515             BlkLake          1300.00    0.0550     104.00     78.50      0          0
3283             1480             BlkLake          2300.00    0.0550     87.00      78.50      0          0
3293             1471             1885             400.00     0          69.80      69.00      0          0
3294             1871             1471             400.00     0          73.00      71.00      0          0
3295             1865             1870             1100.00    0          92.42      78.09      0          0
3296             368              1865             900.00     0          101.52     92.42      0          0
3299             1740             1870             1300.00    0.0650     88.00      80.00      0          0
Apalach1         1340             1345             150.00     0.0250     186.10     165.10     0          0
2030             1345             1350             510.00     0          165.10     148.00     0          0
304              1350             1355             640.00     0          148.00     127.00     0          0
2593             Target           1364             25.00      0.0100     134.00     133.00     0          0
9306             1364             1360             430.00     0.0130     133.00     118.96     0          0
406              1355             1360             460.00     0          127.00     118.96     0          0
609              6090             1405             50.00      0.0130     0          0          0          0
7125             1561             Target           720.00     0.0400     161.02     138.00     0          0
7072             1370             1555             50.00      0.0100     161.96     160.19     0          0
7273             1555             1376             300.00     0.0130     160.19     159.66     0          0
7373             73730            1376             50.00      0.0100     0          0          0          0
7374             1376             1380             345.00     0.0130     159.63     158.00     0          0
7475             1390             1385             350.00     0.0400     180.00     166.00     0          0
7508             1385             1380             70.00      0.0400     166.00     158.00     0          0
881              1530             1535             45.00      0.0130     153.80     152.63     0          0
8182             1535             1395             200.00     0.0130     152.63     146.93     0          0
8283             1395             1540             294.00     0.0130     146.88     142.90     0          0
8384             1540             1545             200.00     0.0130     140.42     133.37     0          0
8485             1545             1550             54.00      0.0130     130.07     128.26     0          0
8586             1550             1400             50.00      0.0130     125.58     123.83     0          0
8687             86870            1556             80.00      0.0130     0          0          0          0
8788             8789             87880            158.00     0.0130     0          0          0          0
8809             1560             1405             60.00      0.0130     119.23     118.76     0          0
910              1405             1410             420.00     0          118.96     111.00     0          0
1012             1410             1420             500.00     0          111.00     105.10     0          0
1230             12300            1435             74.00      0.0130     0          0          0          0
3099             1435             1440             200.00     0.1000     104.40     104.00     0          0
209              1810             1815             100.00     0.0130     129.00     128.50     0          0
3000             1815             1840             100.00     0.0130     128.50     123.50     0          0
1                1301             1305             365.00     0.0200     150.00     149.00     0          0
2                1305             1306             120.00     0.0200     149.00     147.00     0          0
6TO10            1306             1310             420.00     0          144.50     132.24     0          0
22TO25           1322             1325             900.00     0          132.24     117.80     0          0
6                1326             1330             780.00     0          117.05     103.17     0          0
30TO31           1330             1331             80.00      0.1300     105.96     105.11     0          0
21TO22           1321             1322             130.00     0.0140     144.00     132.24     0          0
31TO35           1331             1335             1650.00    0          102.17     88.00      0          0
2006             1690             1605             250.00     0.0130     108.50     90.48      0          0
2015             1755             1750             1650.00    0          162.00     140.00     0          0
2016             1590             1755             750.00     0.0130     190.00     162.00     0          0
2021             1600             Govsqpond        1200.00    0.0250     132.98     88.60      0          0
2026             1585             1575             1800.00    0.0250     191.00     95.51      0          0
2027             1750             1575             500.00     0          140.00     95.51      0          0
2028             1575             1570             300.00     0.0250     97.66      90.00      0          0
2031             1615             1725             110.00     0.0130     176.00     172.05     0          0
2032             1725             1720             1000.00    0          172.05     160.50     0          0
2033             1715             1760             150.00     0.0130     141.50     139.00     0          0
2034             1760             1730             450.00     0.0130     139.00     121.50     0          0
2035             1720             1620             150.00     0.0130     160.50     142.50     0          0
2036             1730             1675             190.00     0.0130     121.50     108.57     0          0
2037             1675             1610             620.00     0.0130     108.57     94.56      0          0
2038             1610             1605             140.00     0.0130     94.56      90.48      0          0
2044             1621             1715             200.00     0.0130     142.50     141.50     0          0
2047             2048             1695             125.00     0.0130     0          0          0          0
2049             1695             Govsqpond        75.00      0.0150     89.76      85.00      0          0
2050             2051             1525             100.00     0.0130     0          0          0          0
2052             1525             BlkLake          1700.00    0.0250     82.78      78.50      0          0
2053             1570             Govsqpond        20.00      0.0250     89.30      85.00      0          0
233              1010             1140             370.00     0          63.40      62.60      0          0
3302             1870             1871             600.00     0          78.09      73.00      0          0
241              207-A            1080             3800.00    0.0350     102.80     62.10      0          0
BLAIRCUL         1570             WestPond         160.00     0.0200     89.09      87.79      0          0
247              1734             BlkLake          1500.00    0.0300     86.10      79.00      0          0
249              1885             PrkBrook         1400.00    0.0650     69.00      66.00      0          0
250              PrkBrook         1010             1100.00    0.0650     66.00      63.40      0          0
323              1910             Richview         2000.00    0.0250     96.10      80.00      0          0
331              1920             1916             700.00     0.0250     150.00     109.35     0          0
333              1900             1901             80.00      0.0140     128.70     120.37     0          0
334              1840             Richview         2000.00    0.0250     123.50     80.30      0          0
335 A            335 B            CCC-NEW2A        80.00      0.0200     97.41      96.10      0          0
336              1336             Richpark         1100.00    0.0250     86.48      82.00      0          0
341              1916             1910             800.00     0.0250     109.35     96.10      0          0
348              1901             328              450.00     0.0140     120.37     100.67     0          0
352              351              Richpark         600.00     0.0250     93.38      82.00      0          0
353              349              351              430.00     0.0140     96.00      93.38      0          0
35TO36W          35TO36E          1336             60.00      0.0130     90.96      90.24      0          0
3631             3632             3633             50.00      0.0140     133.57     133.35     0          0
364              359              360              350.00     0.0300     133.00     132.73     0          0
365              360              361              350.00     0.0140     132.73     124.71     0          0
366              369              362              50.00      0.0130     124.94     124.60     0          0
367              362              361              100.00     0.0130     124.60     124.10     0          0
371              361              370              250.00     0.0160     124.11     122.10     0          0
373              370              372              400.00     0.0200     122.08     111.71     0          0
374              372              1846             150.00     0.0200     111.71     105.58     0          0
377              376              1846             8.00       0.0130     113.39     113.10     0          0
378              1846             368              1350.00    0.0140     105.58     101.52     0          0
7071             70710            1561             22.00      0.0100     161.96     161.02     0          0
Spillway         WestPond         Wetland          20.00      0.0140     82.50      82.40      0          0
CS-Pipe          C.S.             1471             30.00      0.0120     75.00      73.00      0          0
3220             1250             1055             230.00     0.0130     62.00      61.00      0          0
Sym-pipe1        1181             1140             67.00      0.0130     70.00      66.00      0          0
Wet-out          Wetland          1871             30.00      0.0120     83.00      83.00      0          0

[ORIFICES]
;;Name           From             To               Type       Offset     Qcoeff     Gated    CloseTime
;;-------------- ---------------- ---------------- ---------- ---------- ---------- -------- ----------
305              1425             1345             SIDE       163.00     0.650      NO       0
880              1380             1530             SIDE       158.00     0.650      NO       0
2014             1580             1755             SIDE       171.00     0.650      NO       0
1300CS           1300             1301             SIDE       0          0.650      NO       0
1322weir         1310             1322             SIDE       0          0.650      NO       0
MUL19            1320             1321             SIDE       0          0.650      NO       0
GSQorif          GSQweir 1        GSQweir 2        SIDE       0          0.650      NO       0
MUL24            1620             1621             SIDE       0          0.650      NO       0
RV-Box           T9505            RV-Box1          SIDE       0          0.650      NO       0
324              FoodLion         FL-SPILL         SIDE       100.67     0.650      NO       0
FLORI            FoodLion         328              SIDE       100.67     0.650      NO       0
330              FL-CON1          Richview         SIDE       100.67     0.650      NO       0
Wet-Weir         RV-Weir-C        RV-Weir-R        SIDE       81.00      0.650      NO       0
Out-Weir1        Out-Weir2        T9005            SIDE       84.75      0.650      NO       0
Rich.Cond        Rich.Road        RV-Road          SIDE       80.00      0.650      NO       0
CS-Weir          CS-Orifice       CS-Top           SIDE       0          0.650      NO       0
Weir-Slot        CS-Top           Emrg-Weir        SIDE       0          0.650      NO       0
Weir             CS Top           1181             SIDE       0          0.650      NO       0

[WEIRS]
;;Name           From             To               Type       CrestHt    Qcoeff     Gated    EndCon   EndCoeff   Surcharge
;;-------------- ---------------- ---------------- ---------- ---------- ---------- -------- -------- ---------- ----------
MUL3             BLK-Box          Blk-Box1         TRANSVERSE 84.50      1.840      NO       0        0          YES
EP-Pipe3         EP-Pipe4         1020             TRANSVERSE 0          1.840      NO       0        0          YES
1112             11120            1420             TRANSVERSE 117.83     1.840      NO       0        0          YES
13251326         1325             1326             TRANSVERSE 127.00     1.840      NO       0        0          YES
B.S. Road        Govsqpond        1525             TRANSVERSE 89.00      1.840      NO       0        0          YES
EPA Rd.1         1570             1740             TRANSVERSE 91.00      1.840      NO       0        0          YES
Flag-wr1         Flag-wr2         1905             TRANSVERSE 137.00     1.840      NO       0        0          YES
Ag-weir          Ag-out           1905             TRANSVERSE 115.70     1.840      NO       0        0          YES
338 S.           338 N.           Cap. Cic.        TRANSVERSE 0          1.840      NO       0        0          YES
EPARKCUL         1575             1740             TRANSVERSE 91.00      1.840      NO       0        0          YES
EP-Pipe1         EP-Pipe2         EP-Road1         TRANSVERSE 0          1.840      NO       0        0          YES
Blk-Slot         Blk-Weir1        Blk-Weir2        TRANSVERSE 79.50      1.840      NO       0        0          YES
EP-Road2         EP-Road2         1471             TRANSVERSE 84.50      1.840      NO       0        0          YES

[XSECTIONS]
;;Link           Shape        Geom1      Geom2      Geom3      Geom4      Barrels
;;-------------- ------------ ---------- ---------- ---------- ---------- ----------
3020             IRREGULAR    0          0          0          0          1
3030             IRREGULAR    0          0          0          0          1
3035             IRREGULAR    0          0          0          0          1
3040             IRREGULAR    0          0          0          0          1
3050             TRAPEZOIDAL  8.00       18.50      0          0          1
3060             IRREGULAR    0          0          0          0          1
3070             IRREGULAR    0          0          0          0          1
3080             CIRCULAR     5.00       0          0          0          1
3140             IRREGULAR    0          0          0          0          1
3150             IRREGULAR    0          0          0          0          1
3160             IRREGULAR    0          0          0          0          1
3170             IRREGULAR    0          0          0          0          1
3180             IRREGULAR    0          0          0          0          1
3190             CIRCULAR     2.00       0          0          0          1
3278             TRAPEZOIDAL  8.00       20.00      0          0          1
3279             TRAPEZOIDAL  8.00       25.00      0          0          1
3281             TRAPEZOIDAL  7.00       50.00      0          0          1
3282             TRAPEZOIDAL  7.00       50.00      0          0          1
3283             TRAPEZOIDAL  7.00       50.00      0          0          1
3293             IRREGULAR    0          0          0          0          1
3294             IRREGULAR    0          0          0          0          1
3295             IRREGULAR    0          0          0          0          1
3296             IRREGULAR    0          0          0          0          1
3299             IRREGULAR    4.00       200.00     0          0          1
Apalach1         RECT_CLOSED  3.00       4.00       0          0          1
2030             IRREGULAR    0          0          0          0          1
304              IRREGULAR    0          0          0          0          1
2593             CIRCULAR     3.50       0          0          0          1
9306             CIRCULAR     5.00       0          0          0          1
406              IRREGULAR    0          0          0          0          1
609              CIRCULAR     3.50       0          0          0          1
7125             TRAPEZOIDAL  4.00       5.00       0          0          1
7072             CIRCULAR     0.50       0          0          0          1
7273             CIRCULAR     3.00       0          0          0          1