;; SWMM5 .inp converted from XPSWMM .xp file
;; Generated by XPSWMM Card Reader
;; Source format: XP_CARD | Original title: ALCOSAN's Saw Mill Run Interceptor Extension Project

[TITLE]
;;Project Title/Notes
ALCOSAN's Saw Mill Run Interceptor Extension Project

[OPTIONS]
FLOW_UNITS           CFS
INFILTRATION         HORTON
FLOW_ROUTING         DYNWAVE
LINK_OFFSETS         DEPTH
MIN_SLOPE            0.0
ALLOW_PONDING        NO
SKIP_STEADY_STATE    NO
ROUTING_STEP         00:00:05
VARIABLE_STEP        0.75
INERTIAL_DAMPING     NONE
NORMAL_FLOW_LIMITED  BOTH
MAX_TRIALS           30
HEAD_TOLERANCE       2.

[JUNCTIONS]
;;Name           Elev       MaxDepth   InitDepth  SurDepth   Aponded
;;-------------- ---------- ---------- ---------- ---------- ----------
W1               718.40     0          0          0          0
O14              718.40     0          0          0          0
1                731.60     0          0          0          0
4                731.20     0          0          0          0
4B               730.70     0          0          0          0
4A               731.30     0          0          0          0
5                731.30     0          0          0          0
6                730.50     0          0          0          0
8                730.00     0          0          0          0
9                731.10     0          0          0          0
9B               732.30     0          0          0          0
10               735.90     0          0          0          0
O43              740.90     0          0          0          0
D43              769.60     0          0          0          0
W43              769.60     0          0          0          0
12               740.90     0          0          0          0
12A              744.00     0          0          0          0
W42A             743.70     0          0          0          0
W42              744.50     0          0          0          0
13               747.10     0          0          0          0
13A              749.00     0          0          0          0
13B              749.20     0          0          0          0
O41              762.20     0          0          0          0
15               761.90     0          0          0          0
D41              761.50     0          0          0          0
O18              775.00     0          0          0          0
18A              770.70     0          0          0          0
20               774.50     0          0          0          0
22               772.20     0          0          0          0
23               776.30     0          0          0          0
24               776.80     0          0          0          0
25               787.70     0          0          0          0
25A              788.50     0          0          0          0
O39              788.60     0          0          0          0
27               804.80     0          0          0          0
27A              800.04     0          0          0          0
29               816.00     0          0          0          0
O36              821.60     0          0          0          0
30               818.65     0          0          0          0
32               821.90     0          0          0          0
O35              827.10     0          0          0          0
34A              827.81     0          0          0          0
35               828.80     0          0          0          0
O33              844.00     0          0          0          0
39               846.30     0          0          0          0
60391            846.30     0          0          0          0
60393            867.90     0          0          0          0
40               849.14     0          0          0          0
41               853.45     0          0          0          0
O30              858.80     0          0          0          0
49               866.23     0          0          0          0
54               881.86     0          0          0          0
60551            887.90     0          0          0          0
60554            905.70     0          0          0          0
60555            890.40     0          0          0          0
56               888.70     0          0          0          0
59               886.90     0          0          0          0
61               887.25     0          0          0          0
64               889.74     0          0          0          0
M51A             894.00     0          0          0          0
67               900.46     0          0          0          0
70               905.00     0          0          0          0
72               901.30     0          0          0          0
73               902.50     0          0          0          0
74               905.90     0          0          0          0
76               910.00     0          0          0          0
77               911.40     0          0          0          0
79A              928.35     0          0          0          0
80               928.93     0          0          0          0
81               932.45     0          0          0          0
84               932.00     0          0          0          0
84A              931.40     0          0          0          0
M71A             930.90     0          0          0          0
87               930.00     0          0          0          0
88               934.60     0          0          0          0
M74              943.70     0          0          0          0
M75              938.75     0          0          0          0
M76              939.00     0          0          0          0
M77              941.00     0          0          0          0
M80              952.00     0          0          0          0
M81              950.00     0          0          0          0
M84              949.00     0          0          0          0
M86              946.00     0          0          0          0
101              954.60     0          0          0          0
103              963.90     0          0          0          0
C2               974.80     0          0          0          0
C3               974.50     0          0          0          0
C6               986.10     0          0          0          0
C8               984.90     0          0          0          0
C9               986.70     0          0          0          0
C12              991.40     0          0          0          0
C14              996.00     0          0          0          0
C15              996.10     0          0          0          0
C16              999.30     0          0          0          0
C17              1001.40    0          0          0          0
C21              1008.20    0          0          0          0
C28              1017.10    0          0          0          0
C29              1020.60    0          0          0          0
C32              1025.60    0          0          0          0
C35              1025.90    0          0          0          0
C36              1034.50    0          0          0          0
C38              1037.90    0          0          0          0
C40              1047.70    0          0          0          0
C41              1052.50    0          0          0          0
C43              1057.40    0          0          0          0
C45              1059.20    0          0          0          0
C46              1062.10    0          0          0          0
C48              1067.50    0          0          0          0
C49              1067.10    0          0          0          0
C50              1067.70    0          0          0          0
C51              1068.50    0          0          0          0
N1               723.00     0          0          0          0
N2               732.30     0          0          0          0
N3A              750.10     0          0          0          0
N4A              740.70     0          0          0          0
N8               729.50     0          0          0          0
N9               724.40     0          0          0          0
N10              724.10     0          0          0          0
N12              734.00     0          0          0          0
N15A             742.30     0          0          0          0
N16              742.00     0          0          0          0
N17              743.80     0          0          0          0
N21              766.60     0          0          0          0
N24              774.90     0          0          0          0
D40              774.50     0          0          0          0
W40              774.50     0          0          0          0
N26              779.90     0          0          0          0
N27              784.00     0          0          0          0
N28              777.80     0          0          0          0
N29              777.00     0          0          0          0
N31              785.40     0          0          0          0
N33A             795.14     0          0          0          0
O1A              796.20     0          0          0          0
N34              801.90     0          0          0          0
N35              806.00     0          0          0          0
N35A             806.00     0          0          0          0
M2               808.00     0          0          0          0
M6               801.60     0          0          0          0
M8               806.85     0          0          0          0
M11              812.00     0          0          0          0
M12              813.95     0          0          0          0
M13              816.00     0          0          0          0
M22              834.00     0          0          0          0
M23              836.00     0          0          0          0
M33              857.00     0          0          0          0
M34              856.00     0          0          0          0
M41              869.00     0          0          0          0
M43              876.00     0          0          0          0
M44              876.00     0          0          0          0
M45              879.00     0          0          0          0
M48              884.00     0          0          0          0
M50              887.00     0          0          0          0
M52              890.00     0          0          0          0
M53              898.00     0          0          0          0
M55              903.00     0          0          0          0
M56              903.00     0          0          0          0
M57              906.00     0          0          0          0
M58              906.00     0          0          0          0
M59              904.00     0          0          0          0
M61              903.00     0          0          0          0
M64              909.00     0          0          0          0
M65              911.50     0          0          0          0
M66              913.00     0          0          0          0
M69              920.25     0          0          0          0
M71              925.00     0          0          0          0
M72              934.30     0          0          0          0
M85              950.00     0          0          0          0
M82              955.00     0          0          0          0
M68              916.00     0          0          0          0
M67              916.00     0          0          0          0
M62              907.00     0          0          0          0
M63              907.00     0          0          0          0
M60              902.00     0          0          0          0
M54              900.00     0          0          0          0
M49              883.00     0          0          0          0
M47              881.00     0          0          0          0
M46              880.00     0          0          0          0
M40              872.00     0          0          0          0
M39              867.00     0          0          0          0
M38              863.00     0          0          0          0
M37              861.00     0          0          0          0
M36              858.00     0          0          0          0
M35              858.00     0          0          0          0
M32              854.00     0          0          0          0
M30              850.00     0          0          0          0
M28              845.00     0          0          0          0
M27              842.00     0          0          0          0
M26              840.00     0          0          0          0
M21              833.00     0          0          0          0
M18              824.00     0          0          0          0
M17              822.00     0          0          0          0
M16              820.00     0          0          0          0
M14              830.00     0          0          0          0
M10              812.00     0          0          0          0
M7               805.60     0          0          0          0
M5               805.00     0          0          0          0
M3               811.00     0          0          0          0
37               844.70     0          0          0          0
26A              797.80     0          0          0          0
M4               814.00     0          0          0          0
34               826.86     0          0          0          0
36               836.00     0          0          0          0
42               857.72     0          0          0          0
43               865.00     0          0          0          0
46               860.10     0          0          0          0
M29A             865.00     0          0          0          0
52               874.33     0          0          0          0
M51              887.00     0          0          0          0
M79              947.00     0          0          0          0

[STORAGE]
;;Name           Elev       MaxDepth   InitDepth  Shape      Curve/Params
;;-------------- ---------- ---------- ---------- ---------- ----------
O1               718.40     -6.40      0          FUNCTIONAL 100.00 0          0
D1               718.00     -8.00      0          FUNCTIONAL 100.00 0          0
ND1              718.00     -8.00      0          FUNCTIONAL 100.00 0          0
3A               731.20     -11.20     0          FUNCTIONAL 100.00 0          0
O42              744.00     -8.50      0          FUNCTIONAL 100.00 0          0
D42A             743.70     -9.20      0          FUNCTIONAL 100.00 0          0
D42              744.50     -2.50      0          FUNCTIONAL 100.00 0          0
18               769.60     -17.60     0          FUNCTIONAL 100.00 0          0
D39              788.60     -5.20      0          FUNCTIONAL 100.00 0          0
1A               796.20     -10.20     0          FUNCTIONAL 100.00 0          0
M0               797.00     -7.65      0          FUNCTIONAL 100.00 0          0
M8A              820.90     -12.40     0          FUNCTIONAL 100.00 0          0
D36              824.90     -8.40      0          FUNCTIONAL 100.00 0          0
33               823.50     0          0          FUNCTIONAL 100.00 0          0
D34              827.90     -10.30     0          FUNCTIONAL 100.00 0          0
D33              846.80     -6.80      0          FUNCTIONAL 100.00 0          0
M19A             854.40     -17.70     0          FUNCTIONAL 100.00 0          0
60383            847.50     -12.60     0          FUNCTIONAL 100.00 0          0
60394            872.90     -5.10      0          FUNCTIONAL 100.00 0          0
D30              859.90     -7.90      0          FUNCTIONAL 100.00 0          0
44A              864.30     -11.10     0          FUNCTIONAL 100.00 0          0
D29              864.80     -14.30     0          FUNCTIONAL 100.00 0          0
M33B             867.00     -5.70      0          FUNCTIONAL 100.00 0          0
D28              875.90     -9.40      0          FUNCTIONAL 100.00 0          0
55               886.50     -6.60      0          FUNCTIONAL 100.00 0          0
60557            905.70     -14.10     0          FUNCTIONAL 100.00 0          0
60556            890.30     -12.30     0          FUNCTIONAL 100.00 0          0
68               901.52     -7.12      0          FUNCTIONAL 100.00 0          0
D18              932.00     -12.10     0          FUNCTIONAL 100.00 0          0
89               936.50     -6.00      0          FUNCTIONAL 100.00 0          0
102              954.30     -9.38      0          FUNCTIONAL 50.00 0          0
C10              987.70     -8.70      0          FUNCTIONAL 50.00 0          0
C11              989.00     -10.00     0          FUNCTIONAL 50.00 0          0
C19              1002.20    -5.70      0          FUNCTIONAL 50.00 0          0
C23              1013.90    0          0          FUNCTIONAL 50.00 0          0
C25              1015.20    0          0          FUNCTIONAL 100.00 0          0
C30              1028.60    -8.60      0          FUNCTIONAL 100.00 0          0
C31              1028.00    -8.00      0          FUNCTIONAL 100.00 0          0
C33              1024.90    -5.40      0          FUNCTIONAL 100.00 0          0
C34              1024.60    -4.60      0          FUNCTIONAL 100.00 0          0
C42              1053.70    -10.70     0          FUNCTIONAL 100.00 0          0
C52              1070.80    -0.80      0          FUNCTIONAL 100.00 0          0
C53              1072.40    -4.40      0          FUNCTIONAL 100.00 0          0
N3               748.00     -18.00     0          FUNCTIONAL 100.00 0          0
N4               749.50     -24.50     0          FUNCTIONAL 100.00 0          0
M1               797.00     -5.30      0          FUNCTIONAL 0 0          0
M19              842.00     -9.40      0          FUNCTIONAL 0 0          0
M29              847.10     -0.10      0          FUNCTIONAL 0 0          0
M42              871.00     12.50      0          FUNCTIONAL 0 0          0
D35              834.60     -7.70      0          FUNCTIONAL 100.00 0          0

[CONDUITS]
;;Name           From             To               Length     Roughness  InOffset   OutOffset  InitFlow   MaxFlow
;;-------------- ---------------- ---------------- ---------- ---------- ---------- ---------- ---------- ----------
B1               O14              W1               200.00     0.0050     624.00     620.00     0          0
R1               1                D1               200.00     0.0121     707.50     704.60     0          0
R4               4                1                1169.00    0.0130     711.30     707.54     0          0
R3A              3A               4                200.00     0.0130     711.30     711.30     0          0
R4B              4B               3A               68.00      0.0130     711.40     711.30     0          0
R4A              4A               4B               103.00     0.0130     712.40     711.40     0          0
R5               5                4A               315.00     0.0130     714.80     712.57     0          0
R6               6                5                200.00     0.0086     715.50     714.97     0          0
R8               8                6                510.00     0.0130     717.74     715.60     0          0
R9               9                8                202.00     0.0130     718.50     717.70     0          0
R9B              9B               9                812.00     0.0130     721.00     718.53     0          0
R10              10               9B               486.00     0.0130     723.80     721.09     0          0
R12              12               10               421.00     0.0130     726.30     723.84     0          0
K43              O43              12               200.00     0.0073     728.70     726.30     0          0
L43              D43              O43              800.00     0.0130     762.80     728.70     0          0
B43              D43              W43              200.00     0.0130     763.69     760.00     0          0
R12A             12A              12               200.00     0.0130     727.20     726.37     0          0
K42              O42              12A              200.00     0.0033     731.10     727.20     0          0
L42A             D42A             O42              200.00     0.0041     731.10     731.10     0          0
B42A             D42A             W42A             200.00     0.0130     731.78     729.00     0          0
L42              D42              O42              200.00     0.0047     735.50     734.18     0          0
B42              D42              W42              200.00     0.0130     736.37     734.00     0          0
R13              13               12A              354.00     0.0130     729.50     727.20     0          0
R13A             13A              13               315.00     0.0130     730.90     729.71     0          0
R13B             13B              13A              200.00     0.0054     731.20     730.90     0          0
R15              15               13B              821.00     0.0130     740.60     731.20     0          0
K41              O41              15               200.00     0.0046     749.90     740.60     0          0
L41              D41              O41              200.00     0.0046     750.50     749.90     0          0
118              18               15               996.00     0.0130     747.60     740.60     0          0
L18              O18              18               200.00     0.0113     751.10     748.84     0          0
118A             18A              18               200.00     0.0065     748.20     747.68     0          0
120              20               18A              289.00     0.0130     751.47     748.20     0          0
122              22               20               610.00     0.0130     758.70     751.40     0          0
123              23               22               408.00     0.0130     761.78     758.82     0          0
124              24               23               219.00     0.0130     763.40     761.50     0          0
125              25               24               502.00     0.0130     768.20     763.52     0          0
125A             25A              25               224.00     0.0130     770.60     768.10     0          0
L39              O39              25A              200.00     0.0037     775.20     770.60     0          0
11A              1A               25A              435.00     0.0130     775.40     770.60     0          0
1M0              M0               1A               45.00      0.0130     775.90     775.40     0          0
127              27               26A              170.00     0.0130     780.64     778.40     0          0
127A             27A              27               800.00     0.0130     788.39     780.64     0          0
129              29               27A              321.00     0.0130     792.26     788.39     0          0
130              30               29               295.00     0.0130     795.06     792.27     0          0
1M8A             M8A              30               318.00     0.0130     798.51     795.08     0          0
132              32               M8A              355.00     0.0130     802.22     798.57     0          0
133              33               32               380.00     0.0130     805.51     802.25     0          0
L36              O36              M8A              200.00     0.0094     810.60     800.97     0          0
L35              O35              33               200.00     0.0099     825.50     807.46     0          0
134A             34A              34               240.00     0.0130     810.80     809.20     0          0
135              35               34A              355.00     0.0130     814.00     810.80     0          0
L33              O33              35               215.00     0.0130     818.90     815.64     0          0
1M19A            M19A             37               435.00     0.0130     824.70     821.15     0          0
139              39               M19A             525.00     0.0130     828.86     824.70     0          0
160391           60391            39               200.00     0.0092     833.10     829.08     0          0
160393           60393            60391            200.00     0.0124     865.90     833.10     0          0
140              40               39               220.00     0.0130     831.17     828.86     0          0
141              41               40               510.00     0.0130     836.50     831.24     0          0
L30              O30              41               200.00     0.0107     845.50     837.11     0          0
142              42               41               255.00     0.0130     838.00     836.56     0          0
1M33B            M33B             46               595.00     0.0130     850.29     846.56     0          0
149              49               M33B             370.00     0.0130     852.68     850.29     0          0
155              55               54               388.00     0.0130     869.92     866.15     0          0
160551           60551            55               207.00     0.0130     873.60     870.11     0          0
160555           60555            55               308.00     0.0130     876.60     870.37     0          0
160554           60554            60551            567.00     0.0130     889.90     873.60     0          0
156              56               55               165.00     0.0130     870.20     870.20     0          0
159              59               56               417.00     0.0130     873.00     870.30     0          0
161              61               59               332.00     0.0130     874.83     873.00     0          0
164              64               61               558.00     0.0130     877.90     874.83     0          0
1M51A            M51A             64               805.00     0.0130     883.00     878.10     0          0
167              67               M51A             105.00     0.0130     883.96     883.00     0          0
168              68               67               85.00      0.0130     884.57     884.08     0          0
170              70               68               328.00     0.0130     886.60     884.81     0          0
172              72               70               470.00     0.0130     889.56     886.67     0          0
173              73               72               200.00     0.0130     890.97     889.74     0          0
174              74               73               248.00     0.0130     892.48     891.07     0          0
176              76               74               502.00     0.0130     896.05     893.00     0          0
177              77               76               429.00     0.0130     899.08     896.26     0          0
179A             79A              77               875.00     0.0130     904.98     899.18     0          0
180              80               79A              133.00     0.0130     906.13     905.10     0          0
181              81               80               335.00     0.0130     908.15     906.13     0          0
184              84               81               754.00     0.0130     913.70     908.19     0          0
184A             84A              84               95.00      0.0130     914.50     913.80     0          0
1M77A            M71A             84A              262.00     0.0130     916.21     914.50     0          0
187              87               M71A             252.00     0.0130     918.04     916.21     0          0
188              88               87               260.00     0.0130     919.80     918.04     0          0
189              89               88               120.00     0.0130     920.50     920.00     0          0
P74              M74              M72              269.00     0.0130     921.93     920.72     0          0
P75              M75              M74              270.00     0.0130     923.01     921.93     0          0
P76              M76              M75              190.00     0.0130     923.77     923.01     0          0
P77              M77              M76              430.00     0.0130     928.00     923.77     0          0
P81              M81              M80              160.00     0.0130     933.26     932.70     0          0
P84              M84              M82              238.00     0.0130     934.75     933.92     0          0
P86              M86              M85              234.00     0.0130     937.97     935.27     0          0
1101             101              M86              240.00     0.0130     941.14     937.97     0          0
1102             102              101              80.00      0.0130     941.44     941.22     0          0
1103             103              102              343.00     0.0130     944.70     941.44     0          0
S2               C2               103              1093.00    0.0130     955.50     944.70     0          0
S3               C3               C2               200.00     0.0042     956.40     955.50     0          0
S6               C6               C3               1070.00    0.0130     967.30     956.40     0          0
S8               C8               C6               457.00     0.0130     971.00     967.30     0          0
S9               C9               C8               321.00     0.0130     973.60     971.00     0          0
S10              C10              C9               238.00     0.0130     975.16     973.60     0          0
S11              C11              C10              200.00     0.0091     975.30     975.16     0          0
S12              C12              C11              200.00     0.0118     977.60     975.69     0          0
S14              C14              C12              613.00     0.0130     982.20     977.66     0          0