;; SWMM5 .inp converted from XPSWMM .xp file
;; Generated by XPSWMM Card Reader
;; Source format: XP_CARD | Original title: Existing System Analysis

[TITLE]
;;Project Title/Notes
Existing System Analysis

[OPTIONS]
FLOW_UNITS           CFS
INFILTRATION         HORTON
FLOW_ROUTING         DYNWAVE
LINK_OFFSETS         DEPTH
MIN_SLOPE            0.0
ALLOW_PONDING        NO
SKIP_STEADY_STATE    NO
ROUTING_STEP         00:00:60
VARIABLE_STEP        0.75
INERTIAL_DAMPING     PARTIAL
NORMAL_FLOW_LIMITED  BOTH
MAX_TRIALS           50

[JUNCTIONS]
;;Name           Elev       MaxDepth   InitDepth  SurDepth   Aponded
;;-------------- ---------- ---------- ---------- ---------- ----------
n7               939.00     0          0          0          0
n9               924.48     0          0          0          0
n11              919.64     0          0          0          0
n13              915.94     0          0          0          0
n15              920.43     0          0          0          0
n17              930.50     0          0          0          0
n19              920.00     0          0          0          0
n21              895.50     0          0          0          0
n25              938.48     0          0          0          0
n26              938.56     0          0          0          0
n28              936.00     0          0          0          0
n35              920.54     0          0          0          0
n37              912.38     0          0          0          0
n39              910.18     0          0          0          0
n41              905.00     0          0          0          0
n46              916.19     0          0          0          0
n50              957.84     0          0          0          0
n52              955.89     0          0          0          0
n54              954.33     0          0          0          0
n56              949.56     0          0          0          0
n58              936.50     0          0          0          0
n63              963.40     0          0          0          0
n65              955.52     0          0          0          0
n70              958.18     0          0          0          0
n75              952.45     0          0          0          0
n77              954.35     0          0          0          0
n79              952.74     0          0          0          0
n81              949.92     0          0          0          0
n85              949.82     0          0          0          0
n89              962.07     0          0          0          0
n91              962.51     0          0          0          0
n93              961.39     0          0          0          0
n95              961.75     0          0          0          0
n97              960.00     0          0          0          0
n99              953.00     0          0          0          0
n101             945.15     0          0          0          0
n103             932.80     0          0          0          0
n111             956.79     0          0          0          0
n113             957.96     0          0          0          0
n115             947.34     0          0          0          0
n120             943.83     0          0          0          0
n122             943.94     0          0          0          0
n127             949.13     0          0          0          0
n130             942.52     0          0          0          0
n132             957.43     0          0          0          0
n133             953.00     0          0          0          0
n135             950.00     0          0          0          0
n137             944.35     0          0          0          0
n140             946.91     0          0          0          0
n142             943.22     0          0          0          0
n144             943.37     0          0          0          0
n148             943.21     0          0          0          0
n149             939.71     0          0          0          0
n151             941.58     0          0          0          0
n155             956.96     0          0          0          0
n156             959.70     0          0          0          0
n158             974.44     0          0          0          0
n160             974.21     0          0          0          0
n162             959.57     0          0          0          0
n164             957.45     0          0          0          0
n165             960.81     0          0          0          0
n167             963.11     0          0          0          0
n169             962.70     0          0          0          0
n171             961.40     0          0          0          0
n173             960.75     0          0          0          0
n175             960.79     0          0          0          0
n177             961.08     0          0          0          0
n179             961.98     0          0          0          0
n181             961.88     0          0          0          0
n183             961.79     0          0          0          0
n185             963.97     0          0          0          0
n187             962.13     0          0          0          0
n189             960.29     0          0          0          0
n191             959.35     0          0          0          0
n193             958.80     0          0          0          0
n196             957.84     0          0          0          0
n198             955.38     0          0          0          0
n200             950.56     0          0          0          0
n202             948.86     0          0          0          0
n204             940.05     0          0          0          0
n222             937.92     0          0          0          0
n224             960.00     0          0          0          0
n225             960.05     0          0          0          0
n227             960.57     0          0          0          0
n229             957.45     0          0          0          0
n231             956.67     0          0          0          0
n233             956.04     0          0          0          0
n236             954.96     0          0          0          0
n238             953.98     0          0          0          0
n240             953.24     0          0          0          0
n243             952.43     0          0          0          0
n245             954.17     0          0          0          0
n247             952.41     0          0          0          0
n249             954.55     0          0          0          0
n251             959.58     0          0          0          0
n253             959.00     0          0          0          0
n255             959.96     0          0          0          0
n257             958.59     0          0          0          0
n259             958.55     0          0          0          0
n261             956.08     0          0          0          0
n263             949.33     0          0          0          0
n265             947.76     0          0          0          0
n267             943.78     0          0          0          0
n269             943.38     0          0          0          0
n271             942.66     0          0          0          0
n273             942.03     0          0          0          0
n275             938.00     0          0          0          0
n278             933.26     0          0          0          0
n280             937.21     0          0          0          0
n282             943.90     0          0          0          0
n284             945.20     0          0          0          0
n286             944.66     0          0          0          0
n288             941.78     0          0          0          0
n290             936.87     0          0          0          0
n292             934.44     0          0          0          0
n294             937.42     0          0          0          0
n296             945.36     0          0          0          0
n300             939.05     0          0          0          0
n303             956.07     0          0          0          0
n304             956.32     0          0          0          0
n306             957.01     0          0          0          0
n308             958.05     0          0          0          0
n310             956.53     0          0          0          0
n312             954.66     0          0          0          0
n314             956.68     0          0          0          0
n316             957.37     0          0          0          0
n317             955.53     0          0          0          0
n319             952.91     0          0          0          0
n322             950.02     0          0          0          0
n326             952.96     0          0          0          0
n332             961.28     0          0          0          0
n333             958.10     0          0          0          0
n335             957.20     0          0          0          0
n337             954.80     0          0          0          0
n343             934.56     0          0          0          0
n344             934.24     0          0          0          0
n346             932.33     0          0          0          0
n348             932.03     0          0          0          0
n350             929.91     0          0          0          0
n352             929.76     0          0          0          0
n354             929.76     0          0          0          0
n359             937.53     0          0          0          0
n361             937.09     0          0          0          0
n363             940.56     0          0          0          0
n365             940.08     0          0          0          0
n367             929.76     0          0          0          0
n375             929.25     0          0          0          0
n376             929.67     0          0          0          0
n380             946.45     0          0          0          0
n381             948.09     0          0          0          0
n385             948.08     0          0          0          0
n387             947.72     0          0          0          0
n389             943.29     0          0          0          0
n391             943.85     0          0          0          0
n393             939.99     0          0          0          0
n395             936.00     0          0          0          0
n399             959.78     0          0          0          0
n400             956.45     0          0          0          0
n402             946.81     0          0          0          0
n404             945.00     0          0          0          0
n406             943.00     0          0          0          0
n408             943.00     0          0          0          0
n410             937.60     0          0          0          0
n412             930.63     0          0          0          0
n416             956.81     0          0          0          0
n417             960.02     0          0          0          0
n419             939.25     0          0          0          0
n423             958.47     0          0          0          0
n424             960.03     0          0          0          0
n426             959.83     0          0          0          0
n428             948.67     0          0          0          0
n430             948.50     0          0          0          0
n432             933.00     0          0          0          0
n450             966.97     0          0          0          0
n452             967.54     0          0          0          0
n454             967.98     0          0          0          0
n457             967.92     0          0          0          0
n459             958.52     0          0          0          0
n461             957.63     0          0          0          0
n463             954.45     0          0          0          0
n465             951.70     0          0          0          0
n474             969.89     0          0          0          0
n475             970.02     0          0          0          0
n477             960.22     0          0          0          0
n479             958.57     0          0          0          0
n480             956.77     0          0          0          0
n482             956.61     0          0          0          0
n484             957.31     0          0          0          0
n491             961.10     0          0          0          0
n492             961.07     0          0          0          0
n494             961.01     0          0          0          0
n496             960.84     0          0          0          0
n498             960.52     0          0          0          0
n500             960.84     0          0          0          0
n502             960.23     0          0          0          0
n504             958.71     0          0          0          0
n506             956.09     0          0          0          0
n510             949.21     0          0          0          0
n520             924.20     0          0          0          0
n524             964.77     0          0          0          0
n527             957.71     0          0          0          0
n528             951.68     0          0          0          0
n530             952.86     0          0          0          0
n532             953.89     0          0          0          0
n534             953.66     0          0          0          0
n536             939.37     0          0          0          0
n558             923.00     0          0          0          0
n561             916.77     0          0          0          0
n573             930.74     0          0          0          0
n625             953.54     0          0          0          0
n626             949.83     0          0          0          0
n628             948.02     0          0          0          0
n630             943.53     0          0          0          0
n632             942.89     0          0          0          0
n634             940.50     0          0          0          0
n643             954.56     0          0          0          0
n645             936.82     0          0          0          0
n648             956.68     0          0          0          0
n649             957.67     0          0          0          0
n651             958.82     0          0          0          0
n653             962.15     0          0          0          0
n655             961.46     0          0          0          0
n657             960.90     0          0          0          0
n659             957.37     0          0          0          0
n661             949.58     0          0          0          0
n664             944.94     0          0          0          0
n666             946.08     0          0          0          0
n668             935.37     0          0          0          0
n673             969.79     0          0          0          0
n675             965.15     0          0          0          0
n677             960.74     0          0          0          0
n680             951.12     0          0          0          0
n681             950.90     0          0          0          0
n683             950.20     0          0          0          0
n685             950.32     0          0          0          0
n687             948.91     0          0          0          0
n689             948.28     0          0          0          0
n691             946.23     0          0          0          0
n698             960.80     0          0          0          0
n699             961.70     0          0          0          0
n701             961.59     0          0          0          0
n705             960.45     0          0          0          0
n707             956.26     0          0          0          0
n710             939.93     0          0          0          0
n711             945.77     0          0          0          0
n713             933.21     0          0          0          0
n715             921.32     0          0          0          0
n718             958.27     0          0          0          0
n720             959.92     0          0          0          0
n722             958.39     0          0          0          0
n724             952.71     0          0          0          0
n726             946.17     0          0          0          0
n730             973.23     0          0          0          0
n732             973.82     0          0          0          0
n734             973.41     0          0          0          0
n736             971.47     0          0          0          0
n738             968.42     0          0          0          0
n741             955.00     0          0          0          0
n743             956.56     0          0          0          0
n746             940.33     0          0          0          0
n751             974.27     0          0          0          0
n752             974.10     0          0          0          0
n754             972.71     0          0          0          0
n756             970.81     0          0          0          0
n758             973.37     0          0          0          0
n760             971.73     0          0          0          0
n762             969.96     0          0          0          0
n764             968.92     0          0          0          0
n767             967.92     0          0          0          0
n769             966.21     0          0          0          0
n771             965.12     0          0          0          0
n773             965.01     0          0          0          0
n777             970.76     0          0          0          0
n779             971.38     0          0          0          0
n781             973.61     0          0          0          0
n783             971.36     0          0          0          0
n791             958.01     0          0          0          0
n793             954.65     0          0          0          0
n800             957.47     0          0          0          0
n801             956.31     0          0          0          0
n807             912.02     0          0          0          0
n810             958.48     0          0          0          0
n814             956.58     0          0          0          0
n816             957.32     0          0          0          0
n819             950.00     0          0          0          0
n821             952.99     0          0          0          0
n823             956.47     0          0          0          0
n825             956.76     0          0          0          0
n827             957.34     0          0          0          0
n829             954.97     0          0          0          0
n831             949.58     0          0          0          0
n834             948.05     0          0          0          0
n839             958.89     0          0          0          0
n842             956.78     0          0          0          0
n847             954.42     0          0          0          0
n849             936.57     0          0          0          0
n851             926.00     0          0          0          0
n857             931.81     0          0          0          0
n858             897.72     0          0          0          0
n859             917.15     0          0          0          0
n860             953.70     0          0          0          0
n861             952.91     0          0          0          0
n862             952.87     0          0          0          0
n863             939.98     0          0          0          0
n864             951.29     0          0          0          0
1520             943.50     0          0          0          0
1523             945.00     0          0          0          0

[STORAGE]
;;Name           Elev       MaxDepth   InitDepth  Shape      Curve/Params
;;-------------- ---------- ---------- ---------- ---------- ----------
n6               936.00     -6.00      0          FUNCTIONAL 0 0          0
n49              961.00     0          0          FUNCTIONAL 0 0          0
n235             954.41     -0.41      0          FUNCTIONAL 0 0          0
n325             958.00     0          0          FUNCTIONAL 0 0          0
n436             927.00     0          0          FUNCTIONAL 0 0          0
n514             906.00     0          0          FUNCTIONAL 0 0          0
n522             917.80     0          0          FUNCTIONAL 0 0          0
n525             956.00     0          0          FUNCTIONAL 0 0          0
n540             943.00     0          0          FUNCTIONAL 0 0          0
n545             954.50     0          0          FUNCTIONAL 0 0          0
n564             962.00     0          0          FUNCTIONAL 0 0          0
n568             930.00     0          0          FUNCTIONAL 0 0          0
n575             913.00     0          0          FUNCTIONAL 0 0          0
n578             941.86     0          0          FUNCTIONAL 0 0          0
n581             944.80     0          0          FUNCTIONAL 0 0          0
n585             947.00     0          0          FUNCTIONAL 0 0          0
n589             932.63     0          0          FUNCTIONAL 0 0          0
n591             928.00     0          0          FUNCTIONAL 0 0          0
n596             940.00     0          0          FUNCTIONAL 0 0          0
n600             938.00     0          0          FUNCTIONAL 0 0          0
n605             953.50     0          0          FUNCTIONAL 0 0          0
n609             928.50     -1.50      0          FUNCTIONAL 0 0          0
n614             930.00     0          0          FUNCTIONAL 0 0          0
n619             927.00     0          0          FUNCTIONAL 0 0          0
n695             944.00     0          3.73       FUNCTIONAL 0 0          0
n703             961.05     -1.05      0          FUNCTIONAL 0 0          0
n745             940.00     0          0          FUNCTIONAL 0 0          0
n775             970.10     -1.10      0          FUNCTIONAL 0 0          0
n786             975.09     -4.09      0          FUNCTIONAL 0 0          0
n788             958.61     -4.61      0          FUNCTIONAL 0 0          0
n811             960.00     -2.00      0          FUNCTIONAL 0 0          0

[CONDUITS]
;;Name           From             To               Length     Roughness  InOffset   OutOffset  InitFlow   MaxFlow
;;-------------- ---------------- ---------------- ---------- ---------- ---------- ---------- ---------- ----------
l8               ?                Node_10601061    244.00     0.0130     919.53     918.19     0          0
l10              ?                Node_10611062    125.00     0.0130     918.09     916.93     0          0
l12              ?                Node_10621063    140.00     0.0130     916.91     909.99     0          0
l14              ?                Node_10631064    478.00     0.0130     909.96     908.78     0          0
l16              ?                Node_10641065    306.00     0.0130     907.75     907.34     0          0
l18              ?                Node_10651066    272.00     0.0130     907.32     906.44     0          0
l20              ?                Node_10661067    395.00     0.0130     906.42     904.71     0          0
l22              ?                Node_10671068    215.00     0.0130     904.21     888.97     0          0
l27              ?                Node_10691070    232.00     0.0130     930.00     928.61     0          0
l29              ?                Node_10701071    224.00     0.0130     928.61     927.27     0          0
l38              ?                Node_10721073    98.00      0.0130     916.28     909.54     0          0
l40              ?                Node_10731074    185.00     0.0130     909.54     905.10     0          0
l42              ?                Node_10741075    215.00     0.0130     905.10     901.10     0          0
l48              ?                Node_10761074    54.00      0.0130     906.02     905.10     0          0
l51              Node_51          Node_10771078    60.00      0.0130     952.00     951.50     0          0
l53              Node_53          Node_10781079    223.00     0.0130     950.90     946.88     0          0
l55              Node_55          Node_10791080    204.00     0.0130     946.65     945.00     0          0
l57              Node_57          Node_10801081    151.00     0.0130     945.00     944.20     0          0
l59              Node_59          Node_10811082    140.00     0.0130     944.20     935.30     0          0
l66              Node_66          Node_10831084    170.00     0.0130     949.40     946.65     0          0
l80              Node_80          Node_10871088    385.00     0.0130     942.00     941.21     0          0
l82              Node_82          Node_10881089    308.00     0.0130     941.04     940.40     0          0
l92              Node_92          Node_10911092    365.00     0.0130     947.39     946.68     0          0
l94              Node_94          Node_10921093    223.00     0.0130     946.68     946.17     0          0
l96              Node_96          Node_10931094    143.00     0.0130     946.17     945.86     0          0
l98              Node_98          Node_10941095    398.00     0.0130     945.51     944.07     0          0
l100             Node_100         Node_10951096    68.00      0.0130     944.07     942.04     0          0
l102             Node_102         Node_10961097    96.00      0.0130     942.04     938.62     0          0
l104             Node_104         Node_10971098    180.00     0.0130     938.62     923.68     0          0
l114             Node_114         Node_10991100    399.00     0.0130     952.06     948.29     0          0
l116             Node_116         Node_11001101    399.00     0.0130     948.29     935.26     0          0
l123             Node_123         Node_11021103    131.00     0.0130     931.44     931.00     0          0
l128             Node_128         Node_11031104    80.00      0.0130     931.00     930.68     0          0
l129             Node_129         Node_11041101    50.00      0.0130     930.68     929.06     0          0
l131             Node_131         Node_11051101    196.00     0.0130     936.02     933.50     0          0
l134             Node_134         Node_11061107    140.00     0.0130     950.30     947.00     0          0
l136             Node_136         Node_11071108    95.00      0.0130     947.00     944.00     0          0
l138             Node_138         Node_11081109    240.00     0.0130     944.00     938.30     0          0
l141             Node_141         Node_11091110    80.00      0.0130     938.30     934.32     0          0
l143             Node_143         Node_11101111    395.00     0.0130     934.32     933.34     0          0
l145             Node_145         Node_11111112    141.00     0.0130     933.34     932.73     0          0
l150             Node_150         Node_11131114    85.00      0.0130     937.65     937.20     0          0
l152             Node_152         Node_11141115    176.00     0.0130     935.45     932.65     0          0
l157             Node_157         Node_11161117    0          0          0          0          0          0
l159             Node_159         Node_11171118    0          0          0          0          0          0
l161             Node_161         Node_11181119    0          0          0          0          0          0
l163             Node_163         Node_11201106    60.00      0.0130     950.56     950.30     0          0
l166             Node_166         Node_11211122    235.00     0.0130     954.67     954.34     0          0
l168             Node_168         Node_11221123    225.00     0.0130     954.34     954.03     0          0
l170             Node_170         Node_11231124    197.00     0.0130     954.03     953.75     0          0
l172             Node_172         Node_11241125    174.00     0.0130     953.75     953.51     0          0
l174             Node_174         Node_11251126    286.00     0.0130     953.51     953.05     0          0
l176             Node_176         Node_11261127    260.00     0.0130     953.05     952.63     0          0
l178             Node_178         Node_11271128    190.00     0.0130     952.63     952.40     0          0
l180             Node_180         Node_11281129    155.00     0.0130     951.39     951.27     0          0
l182             Node_182         Node_11291130    261.00     0.0130     951.17     950.91     0          0
l184             Node_184         Node_11301131    600.00     0.0130     950.91     950.30     0          0
l186             Node_186         Node_11311132    381.00     0.0130     950.30     949.09     0          0
l188             Node_188         Node_11321133    376.00     0.0130     949.09     947.89     0          0
l190             Node_190         Node_11331134    300.00     0.0130     947.89     947.30     0          0
l192             Node_192         Node_11341135    370.00     0.0130     947.30     946.70     0          0
l194             Node_194         Node_11351136    210.00     0.0130     944.74     940.12     0          0
l197             Node_197         Node_11361137    43.00      0.0130     940.12     939.86     0          0
l199             Node_199         Node_11371138    415.00     0.0130     939.86     937.37     0          0
l201             Node_201         Node_11381139    440.00     0.0130     937.37     934.73     0          0
l203             Node_203         Node_11391140    440.00     0.0130     934.73     932.09     0          0