;; SWMM5 .inp converted from XPSWMM .xp file
;; Generated by XPSWMM Card Reader
;; Source format: XP_CARD | Original title: INNER HARBOR CSO, 1/17/98

[TITLE]
;;Project Title/Notes
INNER HARBOR CSO, 1/17/98

[OPTIONS]
FLOW_UNITS           CFS
INFILTRATION         HORTON
FLOW_ROUTING         DYNWAVE
LINK_OFFSETS         DEPTH
MIN_SLOPE            0.0
ALLOW_PONDING        NO
SKIP_STEADY_STATE    NO
ROUTING_STEP         00:00:10
VARIABLE_STEP        0.75
INERTIAL_DAMPING     PARTIAL
NORMAL_FLOW_LIMITED  BOTH
MAX_TRIALS           40
HEAD_TOLERANCE       0.0033

[JUNCTIONS]
;;Name           Elev       MaxDepth   InitDepth  SurDepth   Aponded
;;-------------- ---------- ---------- ---------- ---------- ----------
R-Q              11.76      0          0          0          0
R-01             11.00      0          0          0          0
R-02             9.00       0          0          0          0
R-04             9.00       0          0          0          0
R-05             10.20      0          0          0          0
R-06             9.50       0          0          0          0
R-06A            6.30       0          0          0          0
R-07             7.00       0          0          0          0
R-08             9.60       0          0          0          0
R-09             10.80      0          0          0          0
R-10             7.90       0          0          0          0
R-11             7.00       0          0          0          0
R-12             6.20       0          0          0          0
R-13             6.70       0          0          0          0
R-14             6.90       0          0          0          0
R-15             8.50       0          0          0          0
R-16             8.60       0          0          0          0
R-17             4.60       0          0          0          0
TG-04            9.00       0          0          0          0
RW-04            9.00       0          0          0          0
K-B3             9.00       0          0          0          0
K-22             13.00      0          0          0          0
K-21             18.00      0          0          0          0
TG-05            10.20      0          0          0          0
RW-05            10.20      0          0          0          0
R05a             10.20      0          0          0          0
K-19A            17.00      0          0          0          0
K-18             17.00      0          0          0          0
TG-06            9.50       0          0          0          0
RW-06            9.50       0          0          0          0
R06a             9.50       0          0          0          0
K-16             19.50      0          0          0          0
RW-06A           6.30       0          0          0          0
R06Aa            6.30       0          0          0          0
K-15             18.00      0          0          0          0
TG-07            7.00       0          0          0          0
RW-07            7.00       0          0          0          0
R07a             7.00       0          0          0          0
K-14             13.00      0          0          0          0
TG-08            9.60       0          0          0          0
RW-08            9.60       0          0          0          0
R08a             9.60       0          0          0          0
K-B9             10.00      0          0          0          0
TG-09            10.80      0          0          0          0
RW-09            10.80      0          0          0          0
R09a             10.00      0          0          0          0
K-09             8.00       0          0          0          0
TG-10            7.90       0          0          0          0
RW-10            7.90       0          0          0          0
R10a             7.90       0          0          0          0
K-07             13.00      0          0          0          0
K-06             18.00      0          0          0          0
K-05             15.00      0          0          0          0
K-04             8.50       0          0          0          0
JC               9.00       0          0          0          0
RW               19.00      0          0          0          0
TG-17            4.60       0          0          0          0
RW-17            4.60       0          0          0          0
R17a             5.00       0          0          0          0
K-26             13.50      0          0          0          0
K-32             9.50       0          0          0          0
K-34             9.50       0          0          0          0
TG-16            8.60       0          0          0          0
RW-16            8.60       0          0          0          0
R16a             8.60       0          0          0          0
K-B14            17.00      0          0          0          0
TG-15            8.50       0          0          0          0
RW-15            8.50       0          0          0          0
R15a             8.50       0          0          0          0
K-37             7.50       0          0          0          0
TG-14            6.90       0          0          0          0
RW-14            6.90       0          0          0          0
R14a             17.00      0          0          0          0
K-38             7.00       0          0          0          0
TG-13            6.70       0          0          0          0
RW-13            6.70       0          0          0          0
R13a             6.70       0          0          0          0
K-43             12.00      0          0          0          0
TG-12            6.20       0          0          0          0
RW-12            6.20       0          0          0          0
R12a             6.20       0          0          0          0
TG-11            7.00       0          0          0          0
RW-11            7.00       0          0          0          0
R11a             7.00       0          0          0          0
TG-02            9.00       0          0          0          0
RW-02            9.00       0          0          0          0
R02a             9.00       0          0          0          0
M-31             11.00      0          0          0          0
M-29             12.70      0          0          0          0
M-25             14.00      0          0          0          0
M-23             3.00       0          0          0          0
M-19             10.00      0          0          0          0
M-16             11.00      0          0          0          0
M-B1             11.00      0          0          0          0
TG-01            9.00       0          0          0          0
RW-01            9.00       0          0          0          0
M-14             14.50      0          0          0          0
M-11             11.00      0          0          0          0
M-10             13.50      0          0          0          0
M-08             16.50      0          0          0          0
TG-Q             9.00       0          0          0          0
RW-Q             9.00       0          0          0          0
RQa              9.00       0          0          0          0
RQb              9.00       0          0          0          0
RQc              9.00       0          0          0          0
M-07             32.50      0          0          0          0
M-06             37.00      0          0          0          0
K-29A            9.00       0          0          0          0
R16b             9.50       0          0          0          0
R15b             9.50       0          0          0          0
R13b             7.50       0          0          0          0
R12b             7.00       0          0          0          0
R11b             12.00      0          0          0          0
R10b             8.00       0          0          0          0
R08b             13.00      0          0          0          0
R07b             18.00      0          0          0          0
R06Ab            19.50      0          0          0          0
R06b             17.00      0          0          0          0
R05b             18.00      0          0          0          0
CS-17            4.60       0          0          0          0
CS-16            8.60       0          0          0          0
CS-15            8.50       0          0          0          0
CS-14            6.90       0          0          0          0
CS-13            6.70       0          0          0          0
CS-12            6.20       0          0          0          0
CS-11            7.00       0          0          0          0
CS-10            7.90       0          0          0          0
CS-09            10.80      0          0          0          0
CS-08            9.60       0          0          0          0
CS-07            7.00       0          0          0          0
CS-06A           6.30       0          0          0          0
CS-06            9.50       0          0          0          0
CS-05            10.20      0          0          0          0
CS-04            9.00       0          0          0          0
CS-02            9.00       0          0          0          0
CS-01            11.00      0          0          0          0
CS-Q             11.76      0          0          0          0
K-17             23.00      0          0          0          0
K-12             16.00      0          0          0          0
M-01             11.50      0          0          0          0
M-02             10.00      0          0          0          0
M-03             13.00      0          0          0          0
M-05             34.50      0          0          0          0
M-09             15.00      0          0          0          0
K-02             6.50       0          0          0          0
K-01             8.00       0          0          0          0
K-40             12.00      0          0          0          0
M-12             9.00       0          0          0          0
M-05Z            22.50      0          0          0          0
M-07Z            34.50      0          0          0          0
CS-05A           10.20      0          0          0          0
R-05A            10.20      0          0          0          0
R05Aa            10.20      0          0          0          0
R05Ab            10.00      0          0          0          0
TG-05A           10.20      0          0          0          0
RW-05A           10.20      0          0          0          0
K-5a             12.00      0          0          0          0
K-11             9.00       0          0          0          0
K-13             14.00      0          0          0          0
M-21             6.50       0          0          0          0
R01a             11.00      0          0          0          0

[STORAGE]
;;Name           Elev       MaxDepth   InitDepth  Shape      Curve/Params
;;-------------- ---------- ---------- ---------- ---------- ----------
WETWELL          9.00       0          0          FUNCTIONAL 1000.00 0          0
DISCH            19.00      -10.00     0          FUNCTIONAL 2400.00 0          0

[CONDUITS]
;;Name           From             To               Length     Roughness  InOffset   OutOffset  InitFlow   MaxFlow
;;-------------- ---------------- ---------------- ---------- ---------- ---------- ---------- ---------- ----------
490              TG-04            RW-04            1000.00    0.0150     -10.33     -11.88     0          0
300              K-B3             K-22             793.08     0.0189     -12.35     -13.24     0          0
301              K-22             K-21             524.68     0.0281     -13.24     -14.54     0          0
590              TG-05            RW-05            250.00     0.0150     -4.93      -5.04      0          0
550              R05a             R05b             250.00     0.0117     -9.80      -10.10     0          0
500              K-21             K-19A            1112.00    0.0150     -14.54     -15.30     0          0
501              K-19A            K-18             935.60     0.0150     -15.30     -16.56     0          0
690              TG-06            RW-06            250.00     0.0150     -2.60      -2.67      0          0
650              R06a             R06b             250.00     0.0109     -6.05      -6.25      0          0
600              K-18             K-17             769.97     0.0150     -16.56     -17.04     0          0
690A             R-06A            RW-06A           250.00     0.0150     0.14       -4.14      0          0
650A             R06Aa            R06Ab            234.25     0.0150     -2.08      -3.20      0          0
600A             K-16             K-15             586.90     0.0150     -17.43     -18.14     0          0
790              TG-07            RW-07            250.00     0.0150     -1.80      -1.82      0          0
750              R07a             R07b             346.98     0.0150     -4.55      -5.94      0          0
700              K-15             K-14             791.98     0.0150     -18.14     -18.64     0          0
890              TG-08            RW-08            350.00     0.0150     -2.48      -2.74      0          0
850              R08a             R08b             250.00     0.0110     -3.95      -4.43      0          0
800              K-14             K-13             529.31     0.0140     -18.64     -18.98     0          0
990              TG-09            RW-09            500.00     0.0150     -6.25      -7.00      0          0
900              K-B9             K-11             401.00     0.0140     -20.16     -20.41     0          0
1090             TG-10            RW-10            800.00     0.0150     -3.44      -4.04      0          0
1050             R10a             R10b             405.18     0.0150     -6.60      -8.02      0          0
1000             K-09             K-07             778.40     0.0150     -20.91     -21.65     0          0
1001             K-07             K-06             524.72     0.0150     -21.65     -21.97     0          0
1102             K-06             K-05             655.28     0.0150     -21.97     -22.36     0          0
1103             K-05             K-5a             652.21     0.0150     -22.36     -22.75     0          0
1105             K-04             K-02             605.57     0.0150     -23.15     -23.52     0          0
1108             JC               WETWELL          246.00     0.0130     -24.86     -25.00     0          0
OUTFALL          DISCH            RW               300.00     0.0126     0          -3.00      0          0
1790             TG-17            RW-17            250.00     0.0100     -4.67      -4.75      0          0
1750             R17a             K-26             635.35     0.0150     -5.81      -7.18      0          0
1751             K-26             K-29A            527.32     0.0150     -7.18      -8.32      0          0
1600             K-32             K-34             510.83     0.0150     -9.81      -10.66     0          0
1690             TG-16            RW-16            400.00     0.0150     -0.38      -0.68      0          0
1650             R16a             R16b             250.00     0.0015     -2.30      -2.32      0          0
1500             K-34             K-B14            524.59     0.0150     -10.66     -11.53     0          0
1590             TG-15            RW-15            300.00     0.0150     0.22       -1.50      0          0
1550             R15a             R15b             500.00     0.0041     -1.08      -1.38      0          0
1400             K-B14            K-37             241.25     0.0147     -11.53     -11.93     0          0
1490             TG-14            RW-14            700.00     0.0150     -1.13      -1.65      0          0
1300             K-37             K-38             256.25     0.0150     -11.93     -12.36     0          0
1390             TG-13            RW-13            600.00     0.0150     -0.78      -1.23      0          0
1350             R13a             R13b             250.00     0.0095     -1.85      -2.48      0          0
1200             K-38             K-40             464.25     0.0157     -12.72     -13.91     0          0
1290             TG-12            RW-12            575.00     0.0150     -5.25      -5.68      0          0
1250             R12a             R12b             250.00     0.0072     -7.26      -7.42      0          0
1100             K-43             K-06             380.46     0.0150     -15.28     -16.16     0          0
1190             TG-11            RW-11            800.00     0.0150     -0.44      -1.04      0          0
1150             R11a             R11b             333.02     0.0150     -1.40      -3.03      0          0
290              TG-02            RW-02            250.00     0.0150     -1.75      -4.25      0          0
200              R02a             M-31             403.50     0.0150     -3.75      -5.75      0          0
201              M-31             M-29             520.00     0.0150     -6.00      -6.99      0          0
202              M-29             M-25             590.00     0.0150     -6.99      -8.11      0          0
203              M-25             M-23             468.00     0.0150     -8.11      -9.00      0          0
204              M-23             M-21             435.02     0.0150     -9.50      -10.07     0          0
206              M-19             M-16             659.91     0.0150     -10.64     -11.51     0          0
207              M-16             M-B1             377.71     0.0430     -11.51     -15.55     0          0
190              TG-01            RW-01            500.00     0.0150     -5.61      -5.65      0          0
100              M-B1             M-14             529.22     0.0244     -15.55     -17.00     0          0
101              M-14             M-12             821.82     0.0150     -17.00     -17.59     0          0
102              M-12             M-11             784.00     0.0150     -17.59     -18.16     0          0
103              M-11             M-10             516.00     0.0149     -18.16     -18.53     0          0
105              M-09             M-08             620.37     0.0236     -19.06     -20.15     0          0
Q90              TG-Q             RW-Q             500.00     0.0150     -2.58      -3.08      0          0
Q50              RQa              RQb              500.00     0.0150     -2.58      -6.98      0          0
Q51              RQb              RQc              500.00     0.0424     -6.98      -12.77     0          0
Q52              RQc              M-08             500.00     0.0150     -12.77     -14.50     0          0
Q00              M-08             M-07             940.41     0.0150     -20.15     -20.71     0          0
Q01              M-07             M-07Z            600.00     0.0150     -20.71     -21.06     0          0
Q03              M-06             M-05             869.87     0.0150     -21.38     -21.90     0          0
1752             K-29A            K-32             613.86     0.0150     -8.32      -9.81      0          0
1651             R16b             K-32             250.00     0.0150     -2.32      -9.81      0          0
1551             R15b             K-34             500.00     0.0041     -1.38      -10.66     0          0
1451             ?                ?                250.00     0.0050     -1.70      -11.53     0          0
1351             R13b             K-37             250.00     0.0067     -2.48      -11.93     0          0
1251             R12b             K-38             250.00     0.0150     -7.42      -12.72     0          0
1151             R11b             K-43             250.00     0.0150     -3.03      -15.28     0          0
1051             R10b             K-09             250.00     0.0150     -8.02      -20.91     0          0
951              R09a             K-B9             500.00     0.0010     -9.85      -20.16     0          0
851              R08b             K-14             250.00     0.0110     -4.43      -18.64     0          0
751              R07b             K-15             350.00     0.0100     -5.94      -18.14     0          0
651A             R06Ab            K-16             250.00     0.0145     -3.20      -17.43     0          0
651              R06b             K-18             250.00     0.0150     -6.25      -16.56     0          0
551              R05b             K-21             250.00     0.0140     -10.10     -14.54     0          0
1780             CS-17            R-17             250.00     0.0140     -2.17      -4.67      0          0
1680             CS-16            R-16             250.00     0.0140     0.75       -1.75      0          0
1580             CS-15            R-15             250.00     0.0140     1.00       0.13       0          0
1480             CS-14            R-14             250.00     0.0140     1.35       -1.15      0          0
1380             CS-13            R-13             250.00     0.0140     -0.29      -1.25      0          0
1280             CS-12            R-12             250.00     0.0140     -5.57      -6.46      0          0
1180             CS-11            R-11             250.00     0.0140     1.69       -0.81      0          0
1080             CS-10            R-10             200.00     0.0151     -3.41      -4.30      0          0
980              CS-09            R-09             500.00     0.0106     -8.18      -9.05      0          0
880              CS-08            R-08             250.00     0.0140     -2.50      -3.40      0          0
780              CS-07            R-07             350.00     0.0140     -3.29      -3.74      0          0
680A             CS-06A           R-06A            250.00     0.0140     -0.57      -1.48      0          0
680              CS-06            R-06             250.00     0.0140     -4.37      -5.25      0          0
580              CS-05            R-05             250.00     0.0140     -8.10      -8.90      0          0
480              CS-04            R-04             300.00     0.0140     -11.10     -11.45     0          0
280              CS-02            R-02             250.00     0.0140     -1.81      -2.70      0          0
180              CS-01            R-01             250.00     0.0140     -5.14      -6.03      0          0
531.1            CS-Q             R-Q              250.00     0.0140     -1.69      -2.58      0          0
601              K-17             K-16             636.15     0.0150     -17.04     -17.43     0          0
802              K-12             K-B9             751.71     0.0185     -19.32     -20.16     0          0
Q08              M-01             JC               886.05     0.0150     -23.68     -24.20     0          0
Q07              M-02             M-01             695.11     0.0150     -23.27     -23.68     0          0
Q06              M-03             M-02             661.70     0.0150     -22.88     -23.27     0          0
Q04              M-05             M-05Z            800.00     0.0150     -21.90     -22.37     0          0
551.1            M-10             M-09             736.81     0.0150     -18.53     -19.06     0          0
1106             K-02             K-01             461.86     0.0150     -23.52     -23.80     0          0
1107             K-01             JC               448.40     0.0150     -23.80     -24.07     0          0
1201             K-40             K-43             590.04     0.0157     -13.91     -15.28     0          0
Q05              M-05Z            M-03             861.42     0.0150     -22.37     -22.88     0          0
Q02              M-07Z            M-06             534.58     0.0150     -21.06     -21.38     0          0
580A             CS-05A           R-05A            250.00     0.0140     4.08       1.58       0          0
550A             R05Aa            R05Ab            250.00     0.0069     0.05       -0.39      0          0
551A             R05Ab            K-19A            250.00     0.0117     -0.39      -15.30     0          0
590A             TG-05A           RW-05A           250.00     0.0150     -4.93      -5.04      0          0
1104             K-5a             K-04             650.00     0.0150     -22.75     -23.15     0          0
901              K-11             K-09             800.85     0.0140     -20.41     -20.91     0          0
801              K-13             K-12             540.00     0.0140     -18.98     -19.32     0          0
205              M-21             M-19             433.36     0.0150     -10.07     -10.64     0          0
150              R-01             R01a             500.00     0.0140     -6.03      -13.66     0          0

[ORIFICES]
;;Name           From             To               Type       Offset     Qcoeff     Gated    CloseTime
;;-------------- ---------------- ---------------- ---------- ---------- ---------- -------- ----------
Link_1           ?                ?                SIDE       0          0.650      NO       0
OF03             R-04             K-B3             SIDE       0          0.650      NO       0
OF05             R-05             R05a             SIDE       0          0.650      NO       0
OF06             R-06             R06a             SIDE       0          0.650      NO       0
OF06A            R-06A            R06Aa            SIDE       0          0.650      NO       0
OF07             R-07             R07a             SIDE       0          0.650      NO       0
OF08             R-08             R08a             SIDE       0          0.650      NO       0
OF09             R-09             R09a             SIDE       0          0.650      NO       0
OF10             R-10             R10a             SIDE       0          0.650      NO       0
OF17             R-17             R17a             SIDE       0          0.650      NO       0
OF16             R-16             R16a             SIDE       0          0.650      NO       0
OF15             R-15             R15a             SIDE       0          0.650      NO       0
OF14             R-14             R14a             SIDE       0          0.650      NO       0
OF13             R-13             R13a             SIDE       0          0.650      NO       0
OF12             R-12             R12a             SIDE       0          0.650      NO       0
OF11             R-11             R11a             SIDE       0          0.650      NO       0
OF02             R-02             R02a             SIDE       0          0.650      NO       0
OF01             R01a             M-B1             SIDE       0          0.650      NO       0
OFQ1             R-Q              RQa              SIDE       0          0.650      NO       0
PUMP             WETWELL          DISCH            SIDE       0          0.650      NO       0
W15              R-15             TG-15            SIDE       0          0.650      NO       0
569.1            R-05A            R05Aa            SIDE       0          0.650      NO       0

[WEIRS]
;;Name           From             To               Type       CrestHt    Qcoeff     Gated    EndCon   EndCoeff   Surcharge
;;-------------- ---------------- ---------------- ---------- ---------- ---------- -------- -------- ---------- ----------
W17              R-17             TG-17            TRANSVERSE 0.14       1.840      NO       0        0          YES
W16              R-16             TG-16            TRANSVERSE 0.50       1.840      NO       0        0          YES
W14              R-14             TG-14            TRANSVERSE 0.20       1.840      NO       0        0          YES
W13              R-13             TG-13            TRANSVERSE 0.14       1.840      NO       0        0          YES
W12              R-12             TG-12            TRANSVERSE 0.14       1.840      NO       0        0          YES
W11              R-11             TG-11            TRANSVERSE 0.40       1.840      NO       0        0          YES
W02              R-02             TG-02            TRANSVERSE 0.14       1.840      NO       0        0          YES
W01              R-01             TG-01            TRANSVERSE 0.14       1.840      NO       0        0          YES
WQ1              R-Q              TG-Q             TRANSVERSE 2.83       1.840      NO       0        0          YES
W04              R-04             TG-04            TRANSVERSE 0.14       1.840      NO       0        0          YES
W05              R-05             TG-05            TRANSVERSE 0.14       1.840      NO       0        0          YES
W06              R-06             TG-06            TRANSVERSE 0.14       1.840      NO       0        0          YES
W07              R-07             TG-07            TRANSVERSE 0.14       1.840      NO       0        0          YES
W08              R-08             TG-08            TRANSVERSE 0.14       1.840      NO       0        0          YES
W09              R-09             TG-09            TRANSVERSE 0.14       1.840      NO       0        0          YES
W10              R-10             TG-10            TRANSVERSE 0.75       1.840      NO       0        0          YES
574.1            R-05A            TG-05A           TRANSVERSE 2.50       1.840      NO       0        0          YES

[XSECTIONS]
;;Link           Shape        Geom1      Geom2      Geom3      Geom4      Barrels
;;-------------- ------------ ---------- ---------- ---------- ---------- ----------
490              RECT_CLOSED  11.00      34.00      0          0          1
300              RECT_CLOSED  5.00       6.00       0          0          1
301              CIRCULAR     6.00       0          0          0          1
590              RECT_CLOSED  8.00       10.00      0          0          1
550              CIRCULAR     5.00       0          0          0          1