;; SWMM5 .inp converted from XPSWMM .xp file
;; Generated by XPSWMM Card Reader
;; Source format: XP_CARD | Original title: Wastewater Information Management System : Honolulu

[TITLE]
;;Project Title/Notes
Wastewater Information Management System : Honolulu

[OPTIONS]
FLOW_UNITS           CFS
INFILTRATION         HORTON
FLOW_ROUTING         DYNWAVE
LINK_OFFSETS         DEPTH
MIN_SLOPE            0.0
ALLOW_PONDING        NO
SKIP_STEADY_STATE    NO
ROUTING_STEP         00:00:15
VARIABLE_STEP        0.75
INERTIAL_DAMPING     PARTIAL
NORMAL_FLOW_LIMITED  BOTH
MAX_TRIALS           50
HEAD_TOLERANCE       0.0033

[JUNCTIONS]
;;Name           Elev       MaxDepth   InitDepth  SurDepth   Aponded
;;-------------- ---------- ---------- ---------- ---------- ----------
0                17.00      0          0          0          0
0                16.88      0          0          0          0
0                14.80      0          0          0          0
0                14.68      0          0          0          0
0                12.50      0          0          0          0
0                11.53      0          0          0          0
0                11.30      0          0          0          0
0                11.70      0          0          0          0
0                11.80      0          0          0          0
0                7.00       0          0          0          0
0                7.00       0          0          0          0
0                10.30      0          0          0          0
0                11.50      0          0          0          0
0                11.60      0          0          0          0
0                9.90       0          0          0          0
0                12.50      0          0          0          0
0                5.06       0          0          0          0
0                5.02       0          0          0          0
0                6.52       0          0          0          0
0                7.92       0          0          0          0
0                10.00      0          0          0          0
0                8.97       0          0          0          0
0                8.97       0          0          0          0
0                9.76       0          0          0          0
0                7.94       0          0          0          0
0                7.00       0          0          0          0
0                6.83       0          0          0          0
0                6.83       0          0          0          0
0                4.81       0          0          0          0
0                5.11       0          0          0          0
0                6.08       0          0          0          0
0                9.98       0          0          0          0
0                12.40      0          0          0          0
0                8.35       0          0          0          0
0                7.66       0          0          0          0
0                7.68       0          0          0          0
0                7.60       0          0          0          0
0                6.63       0          0          0          0
0                8.27       0          0          0          0
0                7.33       0          0          0          0
0                6.80       0          0          0          0
0                5.83       0          0          0          0
0                6.56       0          0          0          0
0                10.51      0          0          0          0
0                10.81      0          0          0          0
0                10.01      0          0          0          0
0                7.92       0          0          0          0
0                9.12       0          0          0          0
0                7.20       0          0          0          0
0                6.81       0          0          0          0
0                6.14       0          0          0          0
0                7.87       0          0          0          0
0                6.05       0          0          0          0
0                6.06       0          0          0          0
0                6.52       0          0          0          0
0                6.14       0          0          0          0
0                8.56       0          0          0          0
0                8.55       0          0          0          0
0                8.57       0          0          0          0
0                8.96       0          0          0          0
0                8.95       0          0          0          0
0                9.50       0          0          0          0
0                9.48       0          0          0          0
0                9.69       0          0          0          0
0                9.42       0          0          0          0
0                9.29       0          0          0          0
0                9.31       0          0          0          0
0                9.46       0          0          0          0
0                9.22       0          0          0          0
0                10.86      0          0          0          0
0                11.51      0          0          0          0
0                11.50      0          0          0          0
0                12.05      0          0          0          0
0                12.26      0          0          0          0
0                12.05      0          0          0          0
0                12.12      0          0          0          0
0                10.84      0          0          0          0
0                5.73       0          0          0          0
0                7.70       0          0          0          0
0                8.00       0          0          0          0
0                8.76       0          0          0          0
0                8.65       0          0          0          0
0                8.61       0          0          0          0
0                8.51       0          0          0          0
0                8.32       0          0          0          0
0                8.00       0          0          0          0
0                8.40       0          0          0          0
0                8.22       0          0          0          0
0                7.79       0          0          0          0
0                7.60       0          0          0          0
0                7.45       0          0          0          0
0                7.00       0          0          0          0
0                7.00       0          0          0          0
0                7.04       0          0          0          0
0                6.40       0          0          0          0
0                7.13       0          0          0          0
0                7.70       0          0          0          0
0                8.55       0          0          0          0
0                8.62       0          0          0          0
0                8.92       0          0          0          0
0                8.44       0          0          0          0
0                9.68       0          0          0          0
0                9.84       0          0          0          0
0                10.76      0          0          0          0
0                10.59      0          0          0          0
0                9.29       0          0          0          0
0                9.21       0          0          0          0
0                9.00       0          0          0          0
0                8.63       0          0          0          0
0                8.69       0          0          0          0
0                9.04       0          0          0          0
0                9.40       0          0          0          0
0                9.62       0          0          0          0
0                9.36       0          0          0          0
0                9.36       0          0          0          0
0                12.04      0          0          0          0
0                10.92      0          0          0          0
0                10.04      0          0          0          0
0                9.94       0          0          0          0
0                8.98       0          0          0          0
0                9.39       0          0          0          0
0                9.34       0          0          0          0
0                9.94       0          0          0          0
0                10.38      0          0          0          0
0                10.66      0          0          0          0
0                10.47      0          0          0          0
0                9.31       0          0          0          0
0                7.80       0          0          0          0
0                7.90       0          0          0          0
0                7.90       0          0          0          0
0                7.90       0          0          0          0
0                8.90       0          0          0          0
0                8.50       0          0          0          0
0                9.40       0          0          0          0
0                9.23       0          0          0          0
0                8.14       0          0          0          0
0                5.04       0          0          0          0
0                9.18       0          0          0          0
0                7.66       0          0          0          0
0                8.63       0          0          0          0
0                6.25       0          0          0          0
0                8.48       0          0          0          0
0                7.59       0          0          0          0
0                8.69       0          0          0          0
0                11.31      0          0          0          0
0                12.47      0          0          0          0
0                11.24      0          0          0          0
0                8.60       0          0          0          0
0                8.48       0          0          0          0
0                7.81       0          0          0          0
0                6.60       0          0          0          0
0                5.90       0          0          0          0
0                4.50       0          0          0          0
0                26.20      0          0          0          0
0                34.70      0          0          0          0
0                42.20      0          0          0          0
0                51.20      0          0          0          0
0                53.40      0          0          0          0
0                55.70      0          0          0          0
0                63.20      0          0          0          0
0                71.20      0          0          0          0
0                74.00      0          0          0          0
0                5.80       0          0          0          0
0                7.80       0          0          0          0
0                0          0          0          0          0
0                6.60       0          0          0          0
0                10.00      0          0          0          0
0                9.63       0          0          0          0
0                9.20       0          0          0          0
0                9.58       0          0          0          0
0                10.30      0          0          0          0
0                8.62       0          0          0          0
0                12.40      0          0          0          0
0                12.50      0          0          0          0
0                13.20      0          0          0          0
0                14.50      0          0          0          0
0                9.40       0          0          0          0
0                15.60      0          0          0          0
0                8.29       0          0          0          0
0                6.72       0          0          0          0
0                17.60      0          0          0          0
0                6.24       0          0          0          0
0                7.16       0          0          0          0
0                5.06       0          0          0          0
0                8.20       0          0          0          0
0                8.60       0          0          0          0
0                8.60       0          0          0          0
0                11.80      0          0          0          0
0                7.60       0          0          0          0
0                6.20       0          0          0          0
0                11.60      0          0          0          0
0                7.20       0          0          0          0
0                8.10       0          0          0          0
0                7.30       0          0          0          0
0                7.39       0          0          0          0
0                7.95       0          0          0          0
0                6.11       0          0          0          0
0                12.78      0          0          0          0
0                5.42       0          0          0          0
0                11.76      0          0          0          0
0                6.31       0          0          0          0
0                6.63       0          0          0          0
0                5.23       0          0          0          0
0                11.97      0          0          0          0
0                4.85       0          0          0          0
0                11.83      0          0          0          0
0                6.15       0          0          0          0
0                9.82       0          0          0          0
0                6.62       0          0          0          0
0                8.49       0          0          0          0
0                6.16       0          0          0          0
0                12.00      0          0          0          0
0                8.11       0          0          0          0
0                6.49       0          0          0          0
0                7.48       0          0          0          0
0                11.16      0          0          0          0
0                9.11       0          0          0          0
0                7.95       0          0          0          0
0                11.36      0          0          0          0
0                9.82       0          0          0          0
0                9.12       0          0          0          0
0                8.49       0          0          0          0
0                8.68       0          0          0          0
0                8.80       0          0          0          0
0                7.56       0          0          0          0
0                5.99       0          0          0          0
0                7.00       0          0          0          0
0                6.83       0          0          0          0
0                7.20       0          0          0          0
0                6.31       0          0          0          0
0                6.03       0          0          0          0
0                6.90       0          0          0          0
0                4.73       0          0          0          0
0                6.27       0          0          0          0
0                4.79       0          0          0          0
0                38.80      0          0          0          0
0                32.30      0          0          0          0
0                20.10      0          0          0          0
0                13.40      0          0          0          0
0                8.49       0          0          0          0
0                38.00      0          0          0          0
0                8.91       0          0          0          0
0                8.76       0          0          0          0
0                8.88       0          0          0          0
0                8.67       0          0          0          0
0                8.49       0          0          0          0
0                8.43       0          0          0          0
0                8.27       0          0          0          0
0                8.39       0          0          0          0
0                7.86       0          0          0          0
0                8.06       0          0          0          0
0                7.90       0          0          0          0
0                7.93       0          0          0          0
0                7.69       0          0          0          0
0                7.39       0          0          0          0
0                8.54       0          0          0          0
0                44.60      0          0          0          0
0                44.60      0          0          0          0
0                46.80      0          0          0          0
0                47.00      0          0          0          0
0                56.85      0          0          0          0
0                56.96      0          0          0          0
0                57.20      0          0          0          0
0                52.32      0          0          0          0
0                55.01      0          0          0          0
0                55.37      0          0          0          0
0                51.50      0          0          0          0
0                51.80      0          0          0          0
0                54.97      0          0          0          0
0                57.57      0          0          0          0
0                59.15      0          0          0          0
0                61.78      0          0          0          0
0                62.80      0          0          0          0
0                67.95      0          0          0          0
0                73.11      0          0          0          0
0                77.85      0          0          0          0
0                80.40      0          0          0          0
0                82.10      0          0          0          0
0                85.45      0          0          0          0
0                88.00      0          0          0          0
0                80.00      0          0          0          0
0                5.87       0          0          0          0
0                84.00      0          0          0          0
0                88.83      0          0          0          0
0                90.63      0          0          0          0
0                92.25      0          0          0          0
0                92.04      0          0          0          0
0                87.60      0          0          0          0
0                88.46      0          0          0          0
0                89.91      0          0          0          0
0                91.02      0          0          0          0
0                95.36      0          0          0          0
0                95.20      0          0          0          0
0                91.26      0          0          0          0
0                89.04      0          0          0          0
0                93.01      0          0          0          0
0                97.46      0          0          0          0
0                105.07     0          0          0          0
0                86.12      0          0          0          0
0                94.10      0          0          0          0
0                93.97      0          0          0          0
0                85.82      0          0          0          0
0                81.71      0          0          0          0
0                96.01      0          0          0          0
0                85.54      0          0          0          0
0                80.06      0          0          0          0
0                60.29      0          0          0          0
0                75.84      0          0          0          0
0                62.30      0          0          0          0
0                70.42      0          0          0          0
0                73.68      0          0          0          0
0                63.51      0          0          0          0
0                67.79      0          0          0          0
0                67.14      0          0          0          0
0                43.31      0          0          0          0
0                38.50      0          0          0          0
0                41.78      0          0          0          0
0                42.49      0          0          0          0
0                43.21      0          0          0          0
0                45.10      0          0          0          0
0                40.62      0          0          0          0
0                38.67      0          0          0          0
0                42.23      0          0          0          0
0                42.45      0          0          0          0
0                44.47      0          0          0          0
0                50.54      0          0          0          0
0                48.39      0          0          0          0
0                49.74      0          0          0          0
0                53.73      0          0          0          0
0                51.80      0          0          0          0
0                55.87      0          0          0          0
0                56.02      0          0          0          0
0                59.22      0          0          0          0
0                58.49      0          0          0          0
0                57.34      0          0          0          0
0                61.09      0          0          0          0
0                61.81      0          0          0          0
0                56.99      0          0          0          0
0                58.65      0          0          0          0
0                55.96      0          0          0          0
0                54.13      0          0          0          0
0                61.91      0          0          0          0
0                62.81      0          0          0          0
0                59.75      0          0          0          0
0                56.68      0          0          0          0
0                54.98      0          0          0          0
0                64.60      0          0          0          0
0                57.52      0          0          0          0
0                57.11      0          0          0          0
0                43.60      0          0          0          0
0                35.94      0          0          0          0
0                34.15      0          0          0          0
0                30.00      0          0          0          0
0                29.70      0          0          0          0
0                24.79      0          0          0          0
0                33.75      0          0          0          0
0                30.63      0          0          0          0
0                35.79      0          0          0          0
0                37.57      0          0          0          0
0                21.11      0          0          0          0
0                21.15      0          0          0          0
0                18.10      0          0          0          0
0                22.00      0          0          0          0
0                18.40      0          0          0          0
0                18.40      0          0          0          0
0                23.32      0          0          0          0
0                24.00      0          0          0          0
0                16.54      0          0          0          0
0                18.50      0          0          0          0
0                17.80      0          0          0          0
0                11.30      0          0          0          0
0                17.00      0          0          0          0
0                10.02      0          0          0          0
0                14.40      0          0          0          0
0                9.09       0          0          0          0
0                14.00      0          0          0          0
0                10.09      0          0          0          0
0                12.70      0          0          0          0
0                7.95       0          0          0          0
0                5.99       0          0          0          0
0                5.63       0          0          0          0
0                5.12       0          0          0          0
0                5.03       0          0          0          0
0                12.24      0          0          0          0
0                11.38      0          0          0          0
0                5.93       0          0          0          0
0                7.29       0          0          0          0
0                5.57       0          0          0          0
0                6.24       0          0          0          0
0                8.04       0          0          0          0
0                7.37       0          0          0          0
0                8.23       0          0          0          0
0                7.29       0          0          0          0
0                6.71       0          0          0          0
0                6.00       0          0          0          0
0                6.40       0          0          0          0
0                6.00       0          0          0          0
0                8.31       0          0          0          0
0                6.03       0          0          0          0
0                9.68       0          0          0          0
0                9.98       0          0          0          0
0                6.50       0          0          0          0
0                5.83       0          0          0          0
0                19.80      0          0          0          0
0                4.68       0          0          0          0
0                17.20      0          0          0          0
0                4.64       0          0          0          0
0                6.16       0          0          0          0
0                6.13       0          0          0          0
0                6.03       0          0          0          0
0                6.71       0          0          0          0
0                6.73       0          0          0          0
0                6.93       0          0          0          0
0                6.50       0          0          0          0
0                34.48      0          0          0          0
0                34.14      0          0          0          0
0                32.22      0          0          0          0
0                27.56      0          0          0          0
0                12.20      0          0          0          0
0                4.47       0          0          0          0
0                3.98       0          0          0          0
0                4.20       0          0          0          0
0                53.44      0          0          0          0
0                57.04      0          0          0          0
0                60.54      0          0          0          0
0                64.64      0          0          0          0
0                68.74      0          0          0          0
0                71.54      0          0          0          0
0                72.91      0          0          0          0
0                74.28      0          0          0          0
0                73.51      0          0          0          0
0                78.00      0          0          0          0
0                78.06      0          0          0          0
0                78.11      0          0          0          0
0                86.75      0          0          0          0
0                88.11      0          0          0          0
0                89.64      0          0          0          0
0                90.54      0          0          0          0
0                96.83      0          0          0          0
0                96.12      0          0          0          0
0                99.97      0          0          0          0
0                98.23      0          0          0          0
0                99.93      0          0          0          0
0                106.49     0          0          0          0
0                97.09      0          0          0          0
0                98.99      0          0          0          0
0                19.37      0          0          0          0
0                13.40      0          0          0          0
0                7.09       0          0          0          0
0                7.25       0          0          0          0
0                7.18       0          0          0          0
0                109.60     0          0          0          0
0                112.00     0          0          0          0
0                114.41     0          0          0          0
0                116.30     0          0          0          0
0                119.52     0          0          0          0
0                119.62     0          0          0          0
0                121.00     0          0          0          0
0                120.71     0          0          0          0
0                121.42     0          0          0          0
0                109.99     0          0          0          0
0                3.40       0          0          0          0
0                33.00      0          0          0          0