;; SWMM5 .inp converted from XPSWMM .xp file
;; Generated by XPSWMM Card Reader
;; Source format: XP_CARD | Original title: City and County of Honolulu |  WIMS

[TITLE]
;;Project Title/Notes
City and County of Honolulu |  WIMS

[OPTIONS]
FLOW_UNITS           CFS
INFILTRATION         HORTON
FLOW_ROUTING         DYNWAVE
LINK_OFFSETS         DEPTH
MIN_SLOPE            0.0
ALLOW_PONDING        NO
SKIP_STEADY_STATE    NO
ROUTING_STEP         00:00:10
VARIABLE_STEP        0.75
INERTIAL_DAMPING     PARTIAL
NORMAL_FLOW_LIMITED  BOTH
MAX_TRIALS           50
HEAD_TOLERANCE       0.0033

[JUNCTIONS]
;;Name           Elev       MaxDepth   InitDepth  SurDepth   Aponded
;;-------------- ---------- ---------- ---------- ---------- ----------
29540341         8.49       0          0          0          0
29540357         6.16       0          0          0          0
29540361         12.00      0          0          0          0
29540374         8.11       0          0          0          0
29540407         6.49       0          0          0          0
29540447         7.48       0          0          0          0
29540466         11.16      0          0          0          0
29540471         9.11       0          0          0          0
29540476         7.95       0          0          0          0
29540542         11.36      0          0          0          0
29540608         9.82       0          0          0          0
29540716         9.12       0          0          0          0
29540872         8.49       0          0          0          0
29540973         8.68       0          0          0          0
29541007         9.03       0          0          0          0
29541109         8.73       0          0          0          0
29541113         8.80       0          0          0          0
29541136         7.56       0          0          0          0
29541165         8.33       0          0          0          0
29541182         7.79       0          0          0          0
29541208         7.56       0          0          0          0
29541235         7.22       0          0          0          0
29541251         6.99       0          0          0          0
29541261         6.46       0          0          0          0
29541276         6.26       0          0          0          0
29541334         6.16       0          0          0          0
29541352         5.52       0          0          0          0
29541377         5.99       0          0          0          0
29541427         6.83       0          0          0          0
29541429         7.20       0          0          0          0
29541466         6.31       0          0          0          0
29541632         6.03       0          0          0          0
29541828         6.90       0          0          0          0
29541981         5.99       0          0          0          0
29541994         4.42       0          0          0          0
29542008         4.50       0          0          0          0
29542022         4.73       0          0          0          0
29542174         6.27       0          0          0          0
29542277         4.79       0          0          0          0
29550002         38.80      0          0          0          0
29550009         32.30      0          0          0          0
29550015         20.10      0          0          0          0
29550018         13.40      0          0          0          0
29550108         8.49       0          0          0          0
29550165         8.91       0          0          0          0
29550173         8.76       0          0          0          0
29550178         8.88       0          0          0          0
29550203         8.67       0          0          0          0
29550234         8.49       0          0          0          0
29550258         8.43       0          0          0          0
29550297         8.27       0          0          0          0
29550349         8.39       0          0          0          0
29550383         7.86       0          0          0          0
29550427         8.06       0          0          0          0
29550469         7.90       0          0          0          0
29550501         7.93       0          0          0          0
29550531         7.69       0          0          0          0
29550581         7.39       0          0          0          0
29550636         8.54       0          0          0          0
29550807         7.14       0          0          0          0
29550811         6.90       0          0          0          0
29550829         6.90       0          0          0          0
29550857         6.97       0          0          0          0
29550914         7.15       0          0          0          0
30510002         34.60      0          0          0          0
30510003         37.40      0          0          0          0
30510004         33.00      0          0          0          0
30510005         31.00      0          0          0          0
30510006         50.00      0          0          0          0
30510007         42.20      0          0          0          0
30510010         50.00      0          0          0          0
30510011         45.40      0          0          0          0
30510016         48.40      0          0          0          0
30510020         51.00      0          0          0          0
30510024         51.50      0          0          0          0
30510027         47.47      0          0          0          0
30510030         41.39      0          0          0          0
30510031         57.50      0          0          0          0
30510032         38.28      0          0          0          0
30510033         36.06      0          0          0          0
30510035         40.01      0          0          0          0
30510038         38.35      0          0          0          0
30510039         37.50      0          0          0          0
30510043         59.30      0          0          0          0
30510070         57.10      0          0          0          0
30510077         57.40      0          0          0          0
30510098         54.90      0          0          0          0
30510119         53.00      0          0          0          0
30520013         104.00     0          0          0          0
30520031         94.69      0          0          0          0
30520035         104.00     0          0          0          0
30520083         106.60     0          0          0          0
30520090         95.58      0          0          0          0
30520109         107.40     0          0          0          0
30520176         110.70     0          0          0          0
30520191         96.96      0          0          0          0
30520199         111.60     0          0          0          0
30520252         99.10      0          0          0          0
30520305         116.77     0          0          0          0
30520311         109.73     0          0          0          0
30520317         116.20     0          0          0          0
30520332         116.80     0          0          0          0
30520334         104.60     0          0          0          0
30520351         116.67     0          0          0          0
30520385         117.92     0          0          0          0
30520446         118.40     0          0          0          0
30520483         119.42     0          0          0          0
30520545         125.05     0          0          0          0
30520636         124.25     0          0          0          0
30520678         124.60     0          0          0          0
30520794         132.11     0          0          0          0
30520873         124.40     0          0          0          0
31510022         51.60      0          0          0          0
31510049         63.00      0          0          0          0
31510095         87.40      0          0          0          0
31510130         102.60     0          0          0          0
31510164         107.20     0          0          0          0
31510223         106.30     0          0          0          0
31510300         108.40     0          0          0          0
31510329         110.20     0          0          0          0
31510351         111.50     0          0          0          0
31510449         120.00     0          0          0          0
31510562         126.70     0          0          0          0
30530038         17.00      0          0          0          0
30530063         16.88      0          0          0          0
30530098         29.96      0          0          0          0
30530134         14.80      0          0          0          0
30530136         14.87      0          0          0          0
30530146         22.86      0          0          0          0
30530173         18.35      0          0          0          0
30530200         12.50      0          0          0          0
30530213         13.05      0          0          0          0
30530221         11.53      0          0          0          0
30530236         11.30      0          0          0          0
30530241         11.70      0          0          0          0
30530243         11.80      0          0          0          0
30530290         7.00       0          0          0          0
30530308         7.00       0          0          0          0
30530396         10.30      0          0          0          0
30530494         11.50      0          0          0          0
30530604         11.60      0          0          0          0
30530715         9.90       0          0          0          0
30530726         10.89      0          0          0          0
30530737         12.62      0          0          0          0
30530747         10.31      0          0          0          0
30530776         10.53      0          0          0          0
30530879         12.15      0          0          0          0
30530977         11.78      0          0          0          0
30531072         11.87      0          0          0          0
30531160         10.21      0          0          0          0
30531166         10.48      0          0          0          0
30531241         11.60      0          0          0          0
30531300         14.46      0          0          0          0
30531374         27.90      0          0          0          0
30531430         32.34      0          0          0          0
30531451         16.76      0          0          0          0
30531464         29.40      0          0          0          0
30531478         21.99      0          0          0          0
30531507         28.50      0          0          0          0
30531515         18.81      0          0          0          0
30531517         24.70      0          0          0          0
30531552         12.50      0          0          0          0
30540041         5.06       0          0          0          0
30540097         5.02       0          0          0          0
30540150         6.52       0          0          0          0
30540207         7.92       0          0          0          0
30540270         10.00      0          0          0          0
30540289         8.97       0          0          0          0
30540312         8.97       0          0          0          0
30540331         9.76       0          0          0          0
30540409         7.94       0          0          0          0
30540432         7.00       0          0          0          0
30540458         6.83       0          0          0          0
30540479         6.83       0          0          0          0
30540486         6.61       0          0          0          0
30540509         7.03       0          0          0          0
30540514         6.81       0          0          0          0
30540554         7.08       0          0          0          0
30540571         7.30       0          0          0          0
30540599         7.74       0          0          0          0
30540622         4.81       0          0          0          0
30540690         8.04       0          0          0          0
30540714         9.24       0          0          0          0
30540745         5.11       0          0          0          0
30540808         8.05       0          0          0          0
30540889         7.33       0          0          0          0
30540912         6.08       0          0          0          0
30540915         7.24       0          0          0          0
30540921         8.61       0          0          0          0
30540944         10.40      0          0          0          0
30540991         11.90      0          0          0          0
30541033         7.28       0          0          0          0
30541050         7.31       0          0          0          0
30541066         17.41      0          0          0          0
30541077         9.98       0          0          0          0
30541080         8.86       0          0          0          0
30541107         7.30       0          0          0          0
30541135         7.02       0          0          0          0
30541145         9.05       0          0          0          0
30541158         6.46       0          0          0          0
30541173         6.90       0          0          0          0
30541175         6.74       0          0          0          0
30541194         21.11      0          0          0          0
30541204         12.40      0          0          0          0
30541208         12.38      0          0          0          0
30541243         0          0          0          0          0
30541389         33.20      0          0          0          0
30541434         8.35       0          0          0          0
30541441         7.66       0          0          0          0
30541493         30.27      0          0          0          0
30541549         5.93       0          0          0          0
28491378         82.90      0          0          0          0
28491398         90.02      0          0          0          0
28491401         84.79      0          0          0          0
28491406         86.42      0          0          0          0
28491412         69.92      0          0          0          0
28491419         68.57      0          0          0          0
28491531         88.00      0          0          0          0
28491565         68.57      0          0          0          0
28491607         74.41      0          0          0          0
28491723         81.19      0          0          0          0
28491774         88.03      0          0          0          0
28491911         84.30      0          0          0          0
28491961         86.92      0          0          0          0
28492130         91.65      0          0          0          0
28492252         95.71      0          0          0          0
28492341         96.88      0          0          0          0
28492397         99.13      0          0          0          0
28492566         99.63      0          0          0          0
28492605         100.15     0          0          0          0
28492699         102.02     0          0          0          0
28492746         104.44     0          0          0          0
28500045         7.09       0          0          0          0
28500047         7.25       0          0          0          0
28500123         7.18       0          0          0          0
29480069         109.60     0          0          0          0
30541580         31.49      0          0          0          0
30541621         32.50      0          0          0          0
30541680         33.53      0          0          0          0
30541708         8.40       0          0          0          0
30541791         35.72      0          0          0          0
30541868         8.25       0          0          0          0
30541876         7.85       0          0          0          0
30541956         7.82       0          0          0          0
30542021         41.50      0          0          0          0
30542046         8.66       0          0          0          0
30542051         14.23      0          0          0          0
30542055         42.00      0          0          0          0
30542310         26.23      0          0          0          0
30542347         30.61      0          0          0          0
30542358         16.90      0          0          0          0
30542473         24.92      0          0          0          0
30542493         19.08      0          0          0          0
30542503         20.95      0          0          0          0
30550025         7.08       0          0          0          0
30550109         7.78       0          0          0          0
30550147         10.70      0          0          0          0
31530034         29.58      0          0          0          0
31530051         20.96      0          0          0          0
31530068         33.27      0          0          0          0
31530118         43.16      0          0          0          0
31530122         20.64      0          0          0          0
31530180         28.40      0          0          0          0
31530199         33.70      0          0          0          0
31530204         34.46      0          0          0          0
31530208         53.28      0          0          0          0
31530226         20.00      0          0          0          0
31530297         49.14      0          0          0          0
31530314         48.66      0          0          0          0
31530336         50.06      0          0          0          0
31530376         51.86      0          0          0          0
31530441         55.71      0          0          0          0
31530466         59.28      0          0          0          0
31530490         62.16      0          0          0          0
31530493         60.13      0          0          0          0
31530546         62.16      0          0          0          0
31530577         74.79      0          0          0          0
31530578         75.57      0          0          0          0
31530585         62.03      0          0          0          0
31530591         75.57      0          0          0          0
24540001         9999.99    0          0          0          0
26520533         10.00      0          0          0          0
26520210         35.00      0          0          0          0
26520238         23.47      0          0          0          0
26520259         32.00      0          0          0          0
26520285         8.27       0          0          0          0
26520304         7.33       0          0          0          0
26520532         36.76      0          0          0          0
26530297         6.80       0          0          0          0
26530319         5.83       0          0          0          0
26530348         6.56       0          0          0          0
27520028         10.51      0          0          0          0
27520039         10.81      0          0          0          0
27520063         13.33      0          0          0          0
27520106         16.08      0          0          0          0
27520121         10.01      0          0          0          0
27520180         19.08      0          0          0          0
27520196         17.49      0          0          0          0
27520218         19.89      0          0          0          0
27520232         7.92       0          0          0          0
27520302         9.46       0          0          0          0
27520389         9.83       0          0          0          0
27520453         10.94      0          0          0          0
27520514         13.15      0          0          0          0
27520546         9.12       0          0          0          0
27520560         7.20       0          0          0          0
27520562         20.30      0          0          0          0
27520571         22.08      0          0          0          0
27520578         6.81       0          0          0          0
27520590         12.99      0          0          0          0
27520642         15.93      0          0          0          0
27520697         6.14       0          0          0          0
27520735         8.67       0          0          0          0
27520771         8.67       0          0          0          0
27520797         7.87       0          0          0          0
27520827         8.69       0          0          0          0
27520887         6.05       0          0          0          0
27520913         11.41      0          0          0          0
27520948         11.70      0          0          0          0
27521026         6.06       0          0          0          0
27521039         9.53       0          0          0          0
27521117         8.65       0          0          0          0
27521158         6.52       0          0          0          0
27521195         8.41       0          0          0          0
27521258         7.00       0          0          0          0
27521293         6.49       0          0          0          0
27521335         6.14       0          0          0          0
27530144         8.56       0          0          0          0
27530172         8.55       0          0          0          0
27530191         8.57       0          0          0          0
27530197         8.96       0          0          0          0
27530206         8.95       0          0          0          0
27530229         9.50       0          0          0          0
27530268         9.48       0          0          0          0
27530312         9.69       0          0          0          0
27530334         9.42       0          0          0          0
27530373         9.29       0          0          0          0
27530400         9.31       0          0          0          0
27530443         9.46       0          0          0          0
27530495         9.22       0          0          0          0
27530552         10.86      0          0          0          0
27530580         11.51      0          0          0          0
27530647         11.50      0          0          0          0
27530677         12.05      0          0          0          0
27530693         12.26      0          0          0          0
27530751         12.05      0          0          0          0
27530780         12.12      0          0          0          0
27530852         10.84      0          0          0          0
28520128         5.73       0          0          0          0
28520280         7.70       0          0          0          0
28520371         8.00       0          0          0          0
28520574         8.76       0          0          0          0
28520701         8.65       0          0          0          0
28520733         8.61       0          0          0          0
28520787         8.51       0          0          0          0
28520862         8.32       0          0          0          0
28520988         8.00       0          0          0          0
28521120         8.40       0          0          0          0
28521166         8.22       0          0          0          0
28521269         7.79       0          0          0          0
28521316         7.60       0          0          0          0
28521361         7.45       0          0          0          0
28521461         7.00       0          0          0          0
28521562         7.40       0          0          0          0
28521565         6.90       0          0          0          0
28521567         6.80       0          0          0          0
28521580         6.50       0          0          0          0
28521626         7.04       0          0          0          0
28521764         6.40       0          0          0          0
28521813         5.00       0          0          0          0
28521824         4.88       0          0          0          0
28521830         7.13       0          0          0          0
28521873         7.70       0          0          0          0
28521963         8.55       0          0          0          0
28521980         8.62       0          0          0          0
28522075         8.92       0          0          0          0
28522174         8.44       0          0          0          0
28530050         9.68       0          0          0          0
28530069         9.84       0          0          0          0
28530073         11.72      0          0          0          0
28530132         11.13      0          0          0          0
28530175         9.34       0          0          0          0
28530178         10.76      0          0          0          0
28530242         10.59      0          0          0          0
28530320         9.29       0          0          0          0
28530342         9.21       0          0          0          0
28530462         9.00       0          0          0          0
28530542         8.63       0          0          0          0
28530644         8.69       0          0          0          0
28530717         9.04       0          0          0          0
28530770         9.40       0          0          0          0
28530809         9.62       0          0          0          0
28530910         9.36       0          0          0          0
28530977         9.36       0          0          0          0
28531133         12.04      0          0          0          0
28531190         10.92      0          0          0          0
28531322         10.04      0          0          0          0
28531383         9.94       0          0          0          0
28531497         8.98       0          0          0          0
28531605         9.39       0          0          0          0
28531639         9.34       0          0          0          0
28531740         9.94       0          0          0          0
28531844         10.38      0          0          0          0
28532007         10.66      0          0          0          0
28532028         10.47      0          0          0          0
28532120         9.31       0          0          0          0
28532206         11.04      0          0          0          0
28532303         7.80       0          0          0          0
28532416         11.60      0          0          0          0
28532445         7.90       0          0          0          0
28532556         7.90       0          0          0          0
28532558         11.72      0          0          0          0
28532640         7.90       0          0          0          0
28532667         12.00      0          0          0          0
28532791         8.90       0          0          0          0
28532793         11.78      0          0          0          0
28532799         13.39      0          0          0          0
28532887         8.50       0          0          0          0
28540032         9.40       0          0          0          0
28540039         9.23       0          0          0          0
28540070         8.14       0          0          0          0
28540097         5.04       0          0          0          0
28540102         9.18       0          0          0          0
28540120         7.66       0          0          0          0
28540128         8.63       0          0          0          0
28540140         6.25       0          0          0          0
28540142         8.48       0          0          0          0
28540147         7.59       0          0          0          0
28540176         8.69       0          0          0          0
28540178         11.31      0          0          0          0
28540227         12.47      0          0          0          0
28540241         11.24      0          0          0          0
29520076         8.60       0          0          0          0
29520078         8.48       0          0          0          0
29520118         7.81       0          0          0          0
29520144         6.60       0          0          0          0
29520190         5.90       0          0          0          0
29520209         4.50       0          0          0          0
29520241         26.20      0          0          0          0
29520242         34.70      0          0          0          0
29520243         42.20      0          0          0          0
29520244         51.20      0          0          0          0
29520245         53.40      0          0          0          0
29520246         55.70      0          0          0          0
29520248         63.20      0          0          0          0
29520254         71.20      0          0          0          0
29520258         74.00      0          0          0          0
29520259         74.50      0          0          0          0
29520263         81.20      0          0          0          0
29520265         76.00      0          0          0          0
29520272         27.75      0          0          0          0
29520278         27.75      0          0          0          0
29520288         80.08      0          0          0          0
29520293         90.80      0          0          0          0
29520310         89.21      0          0          0          0
29520328         98.10      0          0          0          0
29520347         99.40      0          0          0          0
29520353         97.12      0          0          0          0
29520367         97.00      0          0          0          0
29520405         101.40     0          0          0          0
29520418         94.06      0          0          0          0
29520435         102.60     0          0          0          0
29530035         11.96      0          0          0          0
29530070         12.55      0          0          0          0