;; SWMM5 .inp converted from XPSWMM .xp file
;; Generated by XPSWMM Card Reader
;; Source format: XP_CARD | Original title: CITY OF PLYMOUTH COMBINED SEWER OPERATIONAL PLAN

[TITLE]
;;Project Title/Notes
CITY OF PLYMOUTH COMBINED SEWER OPERATIONAL PLAN

[OPTIONS]
FLOW_UNITS           CFS
INFILTRATION         HORTON
FLOW_ROUTING         DYNWAVE
LINK_OFFSETS         DEPTH
MIN_SLOPE            0.0
ALLOW_PONDING        NO
SKIP_STEADY_STATE    NO
ROUTING_STEP         00:00:10
VARIABLE_STEP        0.75
INERTIAL_DAMPING     PARTIAL
NORMAL_FLOW_LIMITED  BOTH
MAX_TRIALS           100
HEAD_TOLERANCE       0.0033

[JUNCTIONS]
;;Name           Elev       MaxDepth   InitDepth  SurDepth   Aponded
;;-------------- ---------- ---------- ---------- ---------- ----------
12-20            787.09     0          0          0          0
12-17            788.34     0          0          0          0
12-7             784.64     0          0          0          0
8-63             779.84     0          0          0          0
8-62             776.03     0          0          0          0
8-61             776.13     0          0          0          0
8-60             780.05     0          0          0          0
8-24A            778.48     0          0          0          0
CSO003           775.00     0          0          0          0
8-63A            779.85     0          0          0          0
CSO005           775.00     0          0          0          0
CSO004           775.00     0          0          0          0
12-21            786.96     0          0          0          0
12-27            791.61     0          0          0          0
12-6             784.51     0          0          0          0
8-63B            779.84     0          0          0          0
8-23A            778.20     0          0          0          0
8-23B            778.37     0          0          0          0
CSO007           775.00     0          0          0          0
8-24             778.41     0          0          0          0
8-11             778.12     0          0          0          0
8-10             777.86     0          0          0          0
8-10A            778.86     0          0          0          0
8-2              780.55     0          0          0          0
8-1              778.93     0          0          0          0
5-80             778.53     0          0          0          0
5-83             776.11     0          0          0          0
5-22             779.89     0          0          0          0
5-23             779.67     0          0          0          0
5-3              776.10     0          0          0          0
6-2              775.42     0          0          0          0
6-1              775.87     0          0          0          0
HDWRK            780.00     0          0          0          0
6-3              775.86     0          0          0          0
6-3A             775.77     0          0          0          0
6-3B             775.89     0          0          0          0
CSO010           775.00     0          0          0          0
7-3              777.64     0          0          0          0
7-1              774.65     0          0          0          0
7-56             783.08     0          0          0          0
7-41             783.32     0          0          0          0
7-69             793.56     0          0          0          0
7-56A            787.27     0          0          0          0
7-70             794.80     0          0          0          0
7-58A            785.06     0          0          0          0
9-13             802.89     0          0          0          0
9-12             800.67     0          0          0          0
9-10             800.74     0          0          0          0
9-3              799.58     0          0          0          0
9-25             802.93     0          0          0          0
9-22             800.68     0          0          0          0
9-22A            801.44     0          0          0          0
9-34             799.13     0          0          0          0
9-31             796.08     0          0          0          0
13-1             800.21     0          0          0          0
10-12            803.34     0          0          0          0
10-7             800.57     0          0          0          0
10-5             797.80     0          0          0          0
10-4             797.82     0          0          0          0
10-1             796.33     0          0          0          0
6-6              781.97     0          0          0          0
6-4              775.54     0          0          0          0
6-4A             775.60     0          0          0          0
CSO009           775.00     0          0          0          0
5-18A            775.58     0          0          0          0
5-20             777.32     0          0          0          0
5-21             775.00     0          0          0          0
5-21A            777.55     0          0          0          0
3-15             792.92     0          0          0          0
3-4              792.00     0          0          0          0
3-1              785.99     0          0          0          0
3-5              795.34     0          0          0          0
3-2              792.92     0          0          0          0
8-5              789.60     0          0          0          0
8-4              789.60     0          0          0          0
8-3              787.54     0          0          0          0
8-6              789.60     0          0          0          0
CSO008           789.60     0          0          0          0
8-7              791.76     0          0          0          0
8-14             778.37     0          0          0          0
8-15             778.35     0          0          0          0
8-12             776.99     0          0          0          0
CSO011           775.00     0          0          0          0
8-22             784.19     0          0          0          0
8-47             791.09     0          0          0          0
8-32             789.75     0          0          0          0
8-64             787.37     0          0          0          0
8-64B            787.34     0          0          0          0
CSO006           775.00     0          0          0          0
11-18            794.24     0          0          0          0
11-5             793.35     0          0          0          0
11-2             791.60     0          0          0          0
11-1             790.75     0          0          0          0
8-65             791.20     0          0          0          0
2-1              785.12     0          0          0          0
8-18A            787.17     0          0          0          0
STMCHN           786.00     0          0          0          0
P-2              780.00     0          0          0          0
CSO002           772.00     0          0          0          0
PCLAR            784.32     0          0          0          0
P-1              776.04     0          0          0          0
P-1A             776.04     0          0          0          0
7-40             783.00     0          0          0          0
1-1              778.00     0          0          0          0
5-1              773.00     0          0          0          0
5-21L            772.00     0          0          0          0
5-88             779.87     0          0          0          0
5-21H            776.00     0          0          0          0
9-1              793.43     0          0          0          0

[STORAGE]
;;Name           Elev       MaxDepth   InitDepth  Shape      Curve/Params
;;-------------- ---------- ---------- ---------- ---------- ----------
RAWPMP           754.40     0          0          FUNCTIONAL 0 0          0
STMRET           786.03     0          0          FUNCTIONAL 3850.00 0          0

[CONDUITS]
;;Name           From             To               Length     Roughness  InOffset   OutOffset  InitFlow   MaxFlow
;;-------------- ---------------- ---------------- ---------- ---------- ---------- ---------- ---------- ----------
12/20            12-20            12-17            375.00     0.0140     777.49     776.39     0          0
12/17            12-17            12-7             640.00     0.0140     776.35     774.94     0          0
12/7             12-7             8-63             500.00     0.0140     774.89     773.20     0          0
8/62             8-62             8-61             350.00     0.0140     770.00     769.26     0          0
8/60             8-60             8-24A            900.00     0.0140     768.25     766.59     0          0
8/63A            8-63A            8-62             280.00     0.0150     771.75     770.63     0          0
SIPHON           8-61             8-60             240.00     0.0120     768.98     768.30     0          0
8/63B            8-63B            CSO005           300.00     0.0140     774.21     771.87     0          0
12/6             12-6             CSO004           350.00     0.0140     776.95     770.00     0          0
12/21            12-21            CSO003           300.00     0.0140     779.62     770.32     0          0
12/27            12-27            12-20            580.00     0.0140     783.37     777.71     0          0
8/23B            8-23B            CSO007           300.00     0.0140     770.69     768.19     0          0
8/24             8-24             8-24A            20.00      0.0120     768.35     768.16     0          0
8/24A            8-24A            8-11             300.00     0.0140     766.59     766.28     0          0
8/11             8-11             8-10             20.00      0.0140     766.26     765.80     0          0
8/10             8-10             8-2              180.00     0.0120     765.36     765.12     0          0
8/10A            8-10A            8-2              180.00     0.0120     765.46     765.16     0          0
8/2              8-2              8-1              200.00     0.0140     764.82     764.81     0          0
8/1              8-1              5-80             260.00     0.0140     764.75     764.63     0          0
5/80             5-80             5-83             500.00     0.0140     764.61     764.07     0          0
5/22             5-22             5-23             260.00     0.0140     761.82     761.47     0          0
5/23             5-23             5-3              1040.00    0.0140     761.45     760.15     0          0
6/2              6-2              6-1              500.00     0.0140     758.40     757.72     0          0
6/1              6-1              P-1              420.00     0.0140     757.59     755.54     0          0
5/3              5-3              5-1              680.00     0.0140     760.10     759.35     0          0
6/3              6-3              6-2              20.00      0.0140     763.36     759.65     0          0
6/3B             6-3B             CSO010           200.00     0.0140     766.13     763.89     0          0
7/3              7-3              7-1              300.00     0.0140     768.59     767.65     0          0
7/1              7-1              6-3A             480.00     0.0140     767.34     766.31     0          0
7/56             7-56             7-41             300.00     0.0140     770.93     769.93     0          0
7/41             7-41             7-40             80.00      0.0140     769.24     769.11     0          0
7/69             7-69             7-56A            850.00     0.0140     774.86     771.77     0          0
7/56A            7-56A            7-56             150.00     0.0140     771.77     771.12     0          0
7/69A            7-69             7-70             670.00     0.0140     786.94     784.79     0          0
7/70             7-70             7-58A            500.00     0.0140     782.90     778.13     0          0
7/58A            7-58A            7-56A            350.00     0.0140     776.24     774.85     0          0
9/13             9-13             9-12             170.00     0.0140     782.57     781.22     0          0
9/12             9-12             9-10             350.00     0.0140     781.17     779.95     0          0
9/10             9-10             9-3              330.00     0.0140     779.86     778.28     0          0
9/3              9-3              9-1              540.00     0.0140     778.08     776.47     0          0
9/25             9-25             9-22             580.00     0.0140     787.03     784.28     0          0
9/22             9-22             9-22A            230.00     0.0140     784.26     783.25     0          0
9/22A            9-22A            9-13             360.00     0.0140     783.25     782.61     0          0
9/34             9-34             9-31             1270.00    0.0140     790.03     788.39     0          0
9/31             9-31             9-25             1080.00    0.0140     788.37     787.73     0          0
13/1             13-1             9-25             200.00     0.0140     787.96     787.13     0          0
10/12            10-12            10-7             360.00     0.0140     790.42     789.44     0          0
10/7             10-7             10-5             170.00     0.0140     789.42     788.57     0          0
10/5             10-5             10-4             350.00     0.0140     788.31     787.76     0          0
10/4             10-4             10-1             260.00     0.0140     788.03     787.33     0          0
10/1             10-1             7-69             230.00     0.0140     787.32     786.18     0          0
9/22B            9-22A            10-12            750.00     0.0140     793.12     790.79     0          0
9/13A            9-13             10-7             750.00     0.0140     795.40     790.26     0          0
9/12A            9-12             10-5             750.00     0.0140     793.78     788.86     0          0
9/10A            9-10             10-4             750.00     0.0140     792.04     789.62     0          0
9/3A             9-3              10-1             750.00     0.0140     790.70     787.33     0          0
6/6              6-6              6-4              800.00     0.0140     772.77     767.62     0          0
6/4              6-4              6-3A             600.00     0.0140     767.37     765.65     0          0
6/4A             6-4A             CSO009           200.00     0.0140     767.95     765.99     0          0
5/18A            5-18A            5-20             350.00     0.0140     771.14     769.12     0          0
5/20             5-20             5-21             100.00     0.0140     769.10     769.00     0          0
5/21             5-21             5-21A            25.00      0.0140     769.00     768.92     0          0
5/21A            5-21A            5-22             175.00     0.0140     762.32     761.89     0          0
3/15             3-15             3-4              200.00     0.0140     784.25     783.46     0          0
3/4              3-4              3-1              380.00     0.0140     783.44     777.04     0          0
3/1              3-1              5-18A            400.00     0.0140     777.01     771.20     0          0
3/5              3-5              3-4              350.00     0.0140     783.74     783.50     0          0
3/5A             3-5              3-2              380.00     0.0140     782.83     780.83     0          0
3/2              3-2              3-1              380.00     0.0140     780.92     780.14     0          0
8/4              8-4              8-3              330.00     0.0140     775.86     774.35     0          0
8/3              8-3              8-2              260.00     0.0140     774.29     773.15     0          0
8/6              8-6              CSO008           50.00      0.0140     776.62     776.11     0          0
8/7              8-7              8-5              150.00     0.0140     777.67     776.08     0          0
8/14             8-14             8-12             310.00     0.0140     769.11     767.79     0          0
8/12             8-12             8-11             280.00     0.0140     767.77     766.31     0          0
8/15             8-15             CSO011           50.00      0.0140     771.74     770.07     0          0
8/22             8-22             8-23A            550.00     0.0140     776.35     770.80     0          0
8/47             8-47             8-32             500.00     0.0140     780.64     779.79     0          0
8/32             8-32             8-22             550.00     0.0140     779.68     776.35     0          0
8/64             8-64             8-62             240.00     0.0140     771.43     770.06     0          0
8/64B            8-64B            CSO006           500.00     0.0140     771.38     766.80     0          0
11/18            11-18            11-5             300.00     0.0140     786.42     784.70     0          0
11/5             11-5             11-2             300.00     0.0140     784.64     783.61     0          0
11/2             11-2             11-1             150.00     0.0140     783.61     782.50     0          0
11/1             11-1             8-65             510.00     0.0140     776.85     773.66     0          0
8/65             8-65             8-64             200.00     0.0140     773.54     771.44     0          0
2/1              2-1              5-20             650.00     0.0140     774.92     769.45     0          0
8/18A            8-18A            8-14             350.00     0.0140     777.65     771.95     0          0
HDWRK            HDWRK            RAWPMP           170.00     0.0120     752.00     749.58     0          0
P/2              P-2              CSO002           295.00     0.0140     769.44     769.00     0          0
EFFL             STMCHN           PCLAR            150.00     0.0120     782.15     777.00     0          0
HDOVER           HDWRK            P-2              20.00      0.0120     770.00     770.00     0          0
RETOVR           STMRET           P-2              220.00     0.0120     783.00     773.00     0          0
P/1A             P-1A             HDWRK            450.00     0.0140     754.84     753.89     0          0
7/40             7-40             7-3              270.00     0.0100     769.40     768.98     0          0
1/1              1-1              P-1              330.00     0.0140     760.56     759.64     0          0
5/1              5-1              6-2              820.00     0.0140     759.35     758.40     0          0
5/83             5-83             5-21L            260.00     0.0140     764.07     763.82     0          0
5/21L            5-21L            5-21H            675.00     0.0140     763.82     763.04     0          0
5/88             5-88             5-21H            350.00     0.0140     775.46     771.66     0          0
5/21H            5-21H            5-21A            715.00     0.0140     763.04     762.32     0          0
9/1              9-1              7-69             330.00     0.0140     776.45     774.86     0          0

[ORIFICES]
;;Name           From             To               Type       Offset     Qcoeff     Gated    CloseTime
;;-------------- ---------------- ---------------- ---------- ---------- ---------- -------- ----------
OR005            8-63             8-63A            SIDE       772.72     0.650      NO       0
OR007            8-23A            8-24             SIDE       0          0.650      NO       0
OR010            6-3A             6-3              SIDE       0          0.650      NO       0
OR008            8-5              8-4              SIDE       0          0.650      NO       0
ORP1             P-1              P-1A             SIDE       0          0.650      NO       0

[WEIRS]
;;Name           From             To               Type       CrestHt    Qcoeff     Gated    EndCon   EndCoeff   Surcharge
;;-------------- ---------------- ---------------- ---------- ---------- ---------- -------- -------- ---------- ----------
WR003            12-20            12-21            V-NOTCH    779.69     1.840      NO       0        0          YES
WR004            12-7             12-6             V-NOTCH    777.01     1.840      NO       0        0          YES
WR005            8-63             8-63B            V-NOTCH    774.54     1.840      NO       0        0          YES
WR007            8-23A            8-23B            V-NOTCH    771.10     1.840      NO       0        0          YES
WR8/10           8-10             8-10A            V-NOTCH    766.82     1.840      NO       0        0          YES
WR010            6-3A             6-3B             V-NOTCH    766.01     1.840      NO       0        0          YES
WR090            6-4              6-4A             V-NOTCH    768.39     1.840      NO       0        0          YES
WR008            8-5              8-6              V-NOTCH    776.62     1.840      NO       0        0          YES
WR011            8-14             8-15             V-NOTCH    772.15     1.840      NO       0        0          YES
WR006            8-64             8-64B            V-NOTCH    773.53     1.840      NO       0        0          YES
WRRET            STMCHN           STMRET           TRANSVERSE 783.92     1.840      NO       0        0          YES

[PUMPS]
;;Name           From             To               PumpCurve  Status   Startup    Shutoff
;;-------------- ---------------- ---------------- ---------- -------- ---------- ----------
PUMP1            PUMP2            PUMP3            *          ON       0          1.00      

[XSECTIONS]
;;Link           Shape        Geom1      Geom2      Geom3      Geom4      Barrels
;;-------------- ------------ ---------- ---------- ---------- ---------- ----------
12/20            CIRCULAR     1.25       0          0          0          1
12/17            CIRCULAR     1.25       0          0          0          1
12/7             CIRCULAR     1.25       0          0          0          1
8/62             CIRCULAR     1.25       0          0          0          1
8/60             CIRCULAR     1.50       0          0          0          1
8/63A            CIRCULAR     1.00       0          0          0          1
SIPHON           CIRCULAR     0.63       0          0          0          2
8/63B            CIRCULAR     1.25       0          0          0          1
12/6             CIRCULAR     0.83       0          0          0          1
12/21            CIRCULAR     1.25       0          0          0          1
12/27            CIRCULAR     1.25       0          0          0          1
8/23B            CIRCULAR     1.25       0          0          0          1
8/24             CIRCULAR     0.67       0          0          0          1
8/24A            CIRCULAR     1.75       0          0          0          1
8/11             CIRCULAR     1.75       0          0          0          1
8/10             CIRCULAR     0.33       0          0          0          1
8/10A            CIRCULAR     1.00       0          0          0          1
8/2              CIRCULAR     1.75       0          0          0          1
8/1              CIRCULAR     1.75       0          0          0          1
5/80             CIRCULAR     1.75       0          0          0          1
5/22             CIRCULAR     1.75       0          0          0          1
5/23             CIRCULAR     1.75       0          0          0          1
6/2              CIRCULAR     3.00       0          0          0          1
6/1              CIRCULAR     3.00       0          0          0          1
5/3              CIRCULAR     2.00       0          0          0          1
6/3              CIRCULAR     1.00       0          0          0          1
6/3B             CIRCULAR     2.50       0          0          0          1
7/3              CIRCULAR     3.00       0          0          0          1
7/1              CIRCULAR     2.50       0          0          0          1
7/56             CIRCULAR     4.00       0          0          0          1
7/41             CIRCULAR     3.00       0          0          0          1
7/69             CIRCULAR     4.00       0          0          0          1
7/56A            CIRCULAR     4.00       0          0          0          1
7/69A            CIRCULAR     1.50       0          0          0          1
7/70             CIRCULAR     1.75       0          0          0          1
7/58A            CIRCULAR     1.50       0          0          0          1
9/13             CIRCULAR     3.00       0          0          0          1
9/12             CIRCULAR     3.00       0          0          0          1
9/10             CIRCULAR     3.00       0          0          0          1
9/3              CIRCULAR     3.00       0          0          0          1
9/25             CIRCULAR     2.50       0          0          0          1
9/22             CIRCULAR     2.50       0          0          0          1
9/22A            CIRCULAR     2.50       0          0          0          1
9/34             CIRCULAR     1.50       0          0          0          1
9/31             CIRCULAR     1.50       0          0          0          1
13/1             CIRCULAR     1.00       0          0          0          1
10/12            CIRCULAR     1.25       0          0          0          1
10/7             CIRCULAR     1.25       0          0          0          1
10/5             CIRCULAR     1.50       0          0          0          1
10/4             CIRCULAR     1.50       0          0          0          1
10/1             CIRCULAR     1.50       0          0          0          1
9/22B            CIRCULAR     1.00       0          0          0          1
9/13A            CIRCULAR     0.83       0          0          0          1
9/12A            CIRCULAR     0.83       0          0          0          1
9/10A            CIRCULAR     0.83       0          0          0          1
9/3A             CIRCULAR     0.67       0          0          0          1
6/6              CIRCULAR     1.25       0          0          0          1
6/4              CIRCULAR     0.67       0          0          0          1
6/4A             CIRCULAR     1.25       0          0          0          1
5/18A            CIRCULAR     2.50       0          0          0          1
5/20             CIRCULAR     2.50       0          0          0          1
5/21             CIRCULAR     1.75       0          0          0          1
5/21A            CIRCULAR     1.75       0          0          0          1
3/15             CIRCULAR     2.00       0          0          0          1
3/4              CIRCULAR     2.00       0          0          0          1
3/1              CIRCULAR     2.25       0          0          0          1
3/5              CIRCULAR     1.25       0          0          0          1
3/5A             CIRCULAR     0.83       0          0          0          1
3/2              CIRCULAR     0.83       0          0          0          1
8/4              CIRCULAR     0.67       0          0          0          1
8/3              CIRCULAR     0.67       0          0          0          1
8/6              CIRCULAR     1.25       0          0          0          1
8/7              CIRCULAR     1.25       0          0          0          1
8/14             CIRCULAR     0.67       0          0          0          1
8/12             CIRCULAR     0.83       0          0          0          1
8/15             CIRCULAR     1.00       0          0          0          1
8/22             CIRCULAR     2.00       0          0          0          1
8/47             CIRCULAR     1.25       0          0          0          1
8/32             CIRCULAR     2.00       0          0          0          1
8/64             CIRCULAR     0.67       0          0          0          1
8/64B            CIRCULAR     3.00       0          0          0          1
11/18            CIRCULAR     1.75       0          0          0          1
11/5             CIRCULAR     2.00       0          0          0          1
11/2             CIRCULAR     2.00       0          0          0          1
11/1             CIRCULAR     3.00       0          0          0          1
8/65             CIRCULAR     3.00       0          0          0          1
2/1              CIRCULAR     0.83       0          0          0          1
8/18A            CIRCULAR     1.00       0          0          0          1
HDWRK            CIRCULAR     2.50       0          0          0          1
P/2              CIRCULAR     1.50       0          0          0          1
EFFL             CIRCULAR     1.33       0          0          0          2
HDOVER           CIRCULAR     1.50       0          0          0          1
RETOVR           CIRCULAR     1.00       0          0          0          1
P/1A             CIRCULAR     2.50       0          0          0          1
7/40             CIRCULAR     2.42       0          0          0          1
1/1              CIRCULAR     0.83       0          0          0          1
5/1              CIRCULAR     2.50       0          0          0          1
5/83             CIRCULAR     1.75       0          0          0          1
5/21L            CIRCULAR     1.75       0          0          0          1
5/88             CIRCULAR     1.00       0          0          0          1
5/21H            CIRCULAR     1.75       0          0          0          1
9/1              CIRCULAR     3.00       0          0          0          1
OR005            RECT_CLOSED  0.33       0          0          0          
OR007            RECT_CLOSED  0.33       0          0          0          
OR010            RECT_CLOSED  0.67       0          0          0          
OR008            RECT_CLOSED  0.33       0          0          0          