;; SWMM5 .inp converted from XPSWMM .xp file
;; Generated by XPSWMM Card Reader
;; Source format: XP_CARD | Original title: RUNOFF BLOCK FOR NEW WESTMINSTER SEWER STUDY

[TITLE]
;;Project Title/Notes
RUNOFF BLOCK FOR NEW WESTMINSTER SEWER STUDY

[OPTIONS]
FLOW_UNITS           CMS
INFILTRATION         HORTON
FLOW_ROUTING         DYNWAVE
LINK_OFFSETS         DEPTH
MIN_SLOPE            0.0
ALLOW_PONDING        NO
SKIP_STEADY_STATE    NO
INERTIAL_DAMPING     PARTIAL
NORMAL_FLOW_LIMITED  BOTH

[JUNCTIONS]
;;Name           Elev       MaxDepth   InitDepth  SurDepth   Aponded
;;-------------- ---------- ---------- ---------- ---------- ----------
6253             0          0          0          0          0
6228             0          0          0          0          0
4126             0          0          0          0          0
4162             0          0          0          0          0
4137             0          0          0          0          0
4168             0          0          0          0          0
4180             0          0          0          0          0
4148             0          0          0          0          0
4146             0          0          0          0          0
4196             0          0          0          0          0
4173             0          0          0          0          0
4195             0          0          0          0          0
4020             0          0          0          0          0
4023             0          0          0          0          0
4029             0          0          0          0          0
4043             0          0          0          0          0
4047             0          0          0          0          0
4073             0          0          0          0          0
4076             0          0          0          0          0
4190             0          0          0          0          0
4017             0          0          0          0          0
4034             0          0          0          0          0
4100             0          0          0          0          0
4083             0          0          0          0          0
4010             0          0          0          0          0
4226             0          0          0          0          0
4227             0          0          0          0          0
4099             0          0          0          0          0
4094             0          0          0          0          0
4104             0          0          0          0          0
4053             0          0          0          0          0
4019             0          0          0          0          0
4024             0          0          0          0          0
4028             0          0          0          0          0
4042             0          0          0          0          0
4044             0          0          0          0          0
4056             0          0          0          0          0

[CONDUITS]
;;Name           From             To               Length     Roughness  InOffset   OutOffset  InitFlow   MaxFlow
;;-------------- ---------------- ---------------- ---------- ---------- ---------- ---------- ---------- ----------
38               6253             6228             0          0          0          0          0          0
39               6228             4146             0          0          0          0          0          0
40               4146             4196             0          0          0          0          0          0
41               4196             4073             0          0          0          0          0          0
42               4073             4047             0          0          0          0          0          0
43               4047             4010             0          0          0          0          0          0
44               4010             4024             0          0          0          0          0          0
45               4148             4043             0          0          0          0          0          0
46               4043             4083             0          0          0          0          0          0
47               4083             4019             0          0          0          0          0          0
48               4019             4053             0          0          0          0          0          0
50               4053             4029             0          0          0          0          0          0
51               4029             4180             0          0          0          0          0          0
52               4180             4023             0          0          0          0          0          0
53               4023             4168             0          0          0          0          0          0
54               4168             4020             0          0          0          0          0          0
55               4020             4137             0          0          0          0          0          0
56               4137             4195             0          0          0          0          0          0
57               4195             4162             0          0          0          0          0          0
58               4162             4126             0          0          0          0          0          0
59               4126             4173             0          0          0          0          0          0
60               4173             4076             0          0          0          0          0          0
61               4076             4227             0          0          0          0          0          0
62               4227             4226             0          0          0          0          0          0
63               4226             4010             0          0          0          0          0          0
64               4010             4042             0          0          0          0          0          0
65               4042             4028             0          0          0          0          0          0
66               4028             4044             0          0          0          0          0          0
67               4044             4099             0          0          0          0          0          0
68               4099             4190             0          0          0          0          0          0
69               4190             4017             0          0          0          0          0          0
70               4017             4094             0          0          0          0          0          0
71               4094             4034             0          0          0          0          0          0
72               4034             4104             0          0          0          0          0          0
73               4104             4053             0          0          0          0          0          0
74               4104             4056             0          0          0          0          0          0
75               4056             4044             0          0          0          0          0          0

[XSECTIONS]
;;Link           Shape        Geom1      Geom2      Geom3      Geom4      Barrels
;;-------------- ------------ ---------- ---------- ---------- ---------- ----------
38               CIRCULAR     0          0          0          0          1
39               CIRCULAR     0          0          0          0          1
40               CIRCULAR     0          0          0          0          1
41               CIRCULAR     0          0          0          0          1
42               CIRCULAR     0          0          0          0          1
43               CIRCULAR     0          0          0          0          1
44               CIRCULAR     0          0          0          0          1
45               CIRCULAR     0          0          0          0          1
46               CIRCULAR     0          0          0          0          1
47               CIRCULAR     0          0          0          0          1
48               CIRCULAR     0          0          0          0          1
50               CIRCULAR     0          0          0          0          1
51               CIRCULAR     0          0          0          0          1
52               CIRCULAR     0          0          0          0          1
53               CIRCULAR     0          0          0          0          1
54               CIRCULAR     0          0          0          0          1
55               CIRCULAR     0          0          0          0          1
56               CIRCULAR     0          0          0          0          1
57               CIRCULAR     0          0          0          0          1
58               CIRCULAR     0          0          0          0          1
59               CIRCULAR     0          0          0          0          1
60               CIRCULAR     0          0          0          0          1
61               CIRCULAR     0          0          0          0          1
62               CIRCULAR     0          0          0          0          1
63               CIRCULAR     0          0          0          0          1
64               CIRCULAR     0          0          0          0          1
65               CIRCULAR     0          0          0          0          1
66               CIRCULAR     0          0          0          0          1
67               CIRCULAR     0          0          0          0          1
68               CIRCULAR     0          0          0          0          1
69               CIRCULAR     0          0          0          0          1
70               CIRCULAR     0          0          0          0          1
71               CIRCULAR     0          0          0          0          1
72               CIRCULAR     0          0          0          0          1
73               CIRCULAR     0          0          0          0          1
74               CIRCULAR     0          0          0          0          1
75               CIRCULAR     0          0          0          0          1

[LOSSES]
;;Link           Inlet      Outlet     Average    Flap Gate
;;-------------- ---------- ---------- ---------- ----------
38               0          0          0          NO
39               0          0          0          NO
40               0          0          0          NO
41               0          0          0          NO
42               0          0          0          NO
43               0          0          0          NO
44               0          0          0          NO
45               0          0          0          NO
46               0          0          0          NO
47               0          0          0          NO
48               0          0          0          NO
50               0          0          0          NO
51               0          0          0          NO
52               0          0          0          NO
53               0          0          0          NO
54               0          0          0          NO
55               0          0          0          NO
56               0          0          0          NO
57               0          0          0          NO
58               0          0          0          NO
59               0          0          0          NO
60               0          0          0          NO
61               0          0          0          NO
62               0          0          0          NO
63               0          0          0          NO
64               0          0          0          NO
65               0          0          0          NO
66               0          0          0          NO
67               0          0          0          NO
68               0          0          0          NO
69               0          0          0          NO
70               0          0          0          NO
71               0          0          0          NO
72               0          0          0          NO
73               0          0          0          NO
74               0          0          0          NO
75               0          0          0          NO

[COORDINATES]
;;Node           X-Coord            Y-Coord
;;-------------- ------------------ ------------------
6253             336.80             -8.94             
6228             353.56             -6.41             
4126             377.91             -1.24             
4162             392.41             -4.34             
4137             414.38             1.90              
4168             432.90             -6.66             
4180             457.46             0.42              
4148             484.04             -4.95             
4146             339.43             12.25             
4196             362.05             12.98             
4173             378.36             24.09             
4195             404.18             12.61             
4020             419.25             11.16             
4023             436.70             18.06             
4029             456.23             18.98             
4043             475.49             13.23             
4047             339.59             36.99             
4073             356.22             31.79             
4076             373.65             41.38             
4190             400.25             37.90             
4017             414.65             42.60             
4034             432.02             43.66             
4100             462.36             38.16             
4083             486.76             35.39             
4010             341.47             62.42             
4226             353.10             61.33             
4227             371.04             64.20             
4099             399.06             59.11             
4094             420.32             54.55             
4104             443.93             62.13             
4053             463.02             56.00             
4019             483.50             59.98             
4024             321.56             83.98             
4028             370.48             107.33            
4042             375.12             78.80             
4044             394.65             82.10             
4056             421.53             77.44             

[MAP]
DIMENSIONS 321.56 -8.94 486.76 107.33
Units      None

[REPORT]
INPUT            YES
SUBCATCHMENTS    ALL
NODES            ALL
LINKS            ALL



