;; SWMM5 .inp converted from XPSWMM .xp file
;; Generated by XPSWMM Card Reader
;; Source format: XP_CARD | Original title: Windsor/Tecumseh/St.Clair Beach Sanitary Trunk

[TITLE]
;;Project Title/Notes
Windsor/Tecumseh/St.Clair Beach Sanitary Trunk

[OPTIONS]
FLOW_UNITS           CFS
INFILTRATION         HORTON
FLOW_ROUTING         DYNWAVE
LINK_OFFSETS         DEPTH
MIN_SLOPE            0.0
ALLOW_PONDING        NO
SKIP_STEADY_STATE    NO
ROUTING_STEP         00:00:30
VARIABLE_STEP        0.75
INERTIAL_DAMPING     PARTIAL
NORMAL_FLOW_LIMITED  BOTH
MAX_TRIALS           100
HEAD_TOLERANCE       0.0033

[JUNCTIONS]
;;Name           Elev       MaxDepth   InitDepth  SurDepth   Aponded
;;-------------- ---------- ---------- ---------- ---------- ----------
6S2018           578.40     0          0          0          0
6S2019           576.60     0          0          0          0
6S2020           576.20     0          0          0          0
6S2021           576.00     0          0          0          0
6S2022           575.50     0          0          0          0
6S2023           575.20     0          0          0          0
6S2024           575.20     0          0          0          0
6S2025           576.00     0          0          0          0
6S2026           576.00     0          0          0          0
6S2027           575.80     0          0          0          0
6S2028           576.40     0          0          0          0
6S2029           576.00     0          0          0          0
6S2030           576.20     0          0          0          0
6S2031           576.00     0          0          0          0
6S2032           575.80     0          0          0          0
6S2033           575.40     0          0          0          0
6S2034           575.00     0          0          0          0
6S2036           575.20     0          0          0          0
6S2037           576.00     0          0          0          0
6S2038           576.00     0          0          0          0
6S552            576.00     0          0          0          0
6S881            579.00     0          0          0          0
6S2035           574.80     0          0          0          0
6S553            576.00     0          0          0          0
6S2050           576.00     0          0          0          0
6S1066           574.80     0          0          0          0
6S2045           576.57     0          0          0          0
6S2019A          576.60     0          0          0          0
6S2020A          576.20     0          0          0          0
6S2021A          576.00     0          0          0          0
6S2022A          575.50     0          0          0          0
6S2023A          575.20     0          0          0          0
6S2024A          575.20     0          0          0          0
6S430            579.00     0          0          0          0
LRPCP            580.00     0          1.00       0          0
OUT2             580.00     0          0          0          0
C2CHAMBER        579.00     0          0          0          0
OUT1             579.00     0          0          0          0
PONTIACINL       579.00     0          0          0          0
6S879            579.00     0          0          0          0
MH               578.00     0          0          0          0
PONTIAC          579.00     0          0          0          0
6S3301           578.00     0          0          0          0
6S3302           577.00     0          0          0          0
6S3303           577.00     0          0          0          0
6S3304           577.00     0          0          0          0
6S3305           577.00     0          0          0          0
6S3309           577.00     0          0          0          0
6S3308           577.00     0          0          0          0
6S3307           577.50     0          0          0          0
6S3107           576.10     0          0          0          0
6S3105           577.40     0          0          0          0
6S3104           576.60     0          0          0          0
6S3101           576.30     0          0          0          0
6S3099           576.30     0          0          0          0
6S3097           576.60     0          0          0          0
6S3095           576.40     0          0          0          0
MH               581.66     0          0          0          0
MH               581.41     0          0          0          0
MH               580.62     0          0          0          0
MH               580.82     0          0          0          0
MH               580.64     0          0          0          0
MH               580.23     0          0          0          0
MH               579.88     0          0          0          0
MH               579.19     0          0          0          0
MH               579.12     0          0          0          0
MH               579.48     0          0          0          0
MH               579.27     0          0          0          0
6S2046           579.08     0          0          0          0
6S2047           578.81     0          0          0          0
6S2048           578.01     0          0          0          0
6S2049           577.88     0          0          0          0
MH               581.67     0          0          0          0
MH               581.66     0          0          0          0
MH               584.57     0          0          0          0
MH               583.29     0          0          0          0
MH               583.04     0          0          0          0
MH               581.77     0          0          0          0
7S1511           585.42     0          0          0          0
6S875            580.00     0          0          0          0
6S876            579.00     0          0          0          0
6S877            579.00     0          0          0          0
6S878            579.00     0          0          0          0
6S2361           576.00     0          0          0          0
213              580.00     0          0          0          0

[STORAGE]
;;Name           Elev       MaxDepth   InitDepth  Shape      Curve/Params
;;-------------- ---------- ---------- ---------- ---------- ----------
INLET            579.00     0          0          FUNCTIONAL 1000.00 0          0
RELIEF           579.00     0          0          FUNCTIONAL 113.00 0          0

[CONDUITS]
;;Name           From             To               Length     Roughness  InOffset   OutOffset  InitFlow   MaxFlow
;;-------------- ---------------- ---------------- ---------- ---------- ---------- ---------- ---------- ----------
22               6S2018           6S2019           233.00     0.0130     565.87     565.15     0          0
21               6S2019           6S2020           246.50     0.0130     565.14     564.47     0          0
20               6S2020           6S2021           314.30     0.0130     564.40     563.57     0          0
19               6S2021           6S2022           320.90     0.0130     563.52     562.48     0          0
18               6S2022           6S2023           292.80     0.0130     562.50     561.65     0          0
17               6S2023           6S2024           306.60     0.0130     561.57     560.62     0          0
16               6S2024           6S2025           299.00     0.0130     560.55     559.82     0          0
15               6S2025           6S2026           322.00     0.0130     557.36     557.01     0          0
14               6S2026           6S2027           374.50     0.0130     556.90     556.88     0          0
13               6S2027           6S2028           375.20     0.0130     556.88     556.70     0          0
12               6S2028           6S2029           363.00     0.0130     556.72     556.52     0          0
11               6S2029           6S2030           512.40     0.0130     556.52     556.31     0          0
10               6S2030           6S2031           501.40     0.0130     556.31     555.95     0          0
9                6S2031           6S2032           471.80     0.0130     555.95     555.77     0          0
8                6S2032           6S2033           469.50     0.0130     555.29     555.07     0          0
7                6S2033           6S2034           511.20     0.0130     555.05     554.71     0          0
4                6S2036           6S2037           515.60     0.0130     554.48     554.32     0          0
3                6S2037           6S2038           503.70     0.0130     554.28     554.09     0          0
2                6S2038           6S552            498.50     0.0130     554.08     553.79     0          0
1                6S552            6S881            840.00     0.0130     553.76     553.35     0          0
6                6S2034           6S2035           429.00     0.0130     554.71     554.82     0          0
5                6S2035           6S2036           427.40     0.0130     554.83     554.47     0          0
101              6S553            6S552            775.00     0.0130     556.35     555.27     0          0
LR               6S2050           6S552            303.50     0.0130     555.00     554.39     0          0
301              6S1066           6S2035           247.10     0.0130     557.47     557.73     0          0
401              6S2045           6S2025           331.20     0.0130     560.62     559.85     0          0
22A              6S2018           6S2019A          233.00     0.0130     565.87     565.15     0          0
21A              6S2019A          6S2020A          246.50     0.0130     565.14     564.47     0          0
20A              6S2020A          6S2021A          314.30     0.0130     564.40     563.57     0          0
19A              6S2021A          6S2022A          320.90     0.0130     563.52     562.48     0          0
18A              6S2022A          6S2023A          292.80     0.0130     562.50     561.65     0          0
17A              6S2023A          6S2024A          306.60     0.0130     561.57     560.62     0          0
16A              6S2024A          6S2025           299.00     0.0130     560.55     559.82     0          0
PLANTINLET       6S881            INLET            118.00     0.0130     553.35     553.23     0          0
PLANT            213              OUT2             200.00     0.0130     550.00     549.00     0          0
JEROME1          RELIEF           6S881            224.00     0.0130     554.48     554.26     0          0
C1CHAMBER        C2CHAMBER        OUT1             200.00     0.0130     561.00     560.00     0          0
PONTIACOVE       6S881            PONTIACINL       100.00     0.0130     554.66     559.02     0          0
EDGAR1           6S879            INLET            237.50     0.0130     555.78     555.50     0          0
JEROME2          MH               RELIEF           213.00     0.0130     554.66     554.49     0          0
WYANBYPASS       6S430            PONTIACINL       100.00     0.0130     558.85     556.05     0          0
P1               PONTIACINL       PONTIAC          102.00     0.0210     555.47     554.50     0          0
REND1            6S3301           6S3302           398.00     0.0130     570.70     568.86     0          0
REND2            6S3302           6S3303           400.00     0.0130     568.84     567.96     0          0
REND3            6S3303           6S3304           400.00     0.0130     567.94     567.07     0          0
REND4            6S3304           6S3305           397.00     0.0130     567.04     566.18     0          0
REND5            6S3305           6S2019           394.00     0.0130     566.15     565.30     0          0
REND8            6S3309           6S3308           400.00     0.0130     568.90     567.37     0          0
REND7            6S3308           6S3307           271.00     0.0130     567.23     566.42     0          0
REND6            6S3307           6S2019           369.00     0.0130     566.40     565.30     0          0
CGT7             6S3107           6S3105           350.70     0.0130     568.96     566.93     0          0
CGT6             6S3105           6S3104           274.00     0.0130     566.90     566.34     0          0
CGT5             6S3104           6S3101           274.30     0.0130     566.31     565.75     0          0
CGT4             6S3101           6S3099           398.30     0.0130     565.65     564.76     0          0
CGT3             6S3099           6S3097           383.50     0.0130     564.73     563.85     0          0
CGT2             6S3097           6S3095           416.00     0.0130     563.81     563.09     0          0
CGT1             6S3095           6S2022           263.50     0.0130     563.06     562.50     0          0
LR               MH               MH               305.00     0.0130     558.07     557.98     0          0
LR               MH               MH               299.70     0.0130     557.98     557.90     0          0
LR               MH               MH               299.80     0.0130     557.90     557.53     0          0
LR               MH               MH               299.50     0.0130     557.53     557.42     0          0
LR               MH               MH               299.80     0.0130     557.42     556.92     0          0
LR               MH               MH               306.20     0.0130     556.92     556.84     0          0
LR               MH               MH               293.00     0.0130     556.84     556.73     0          0
LR               MH               MH               299.30     0.0130     556.73     556.44     0          0
LR               MH               MH               208.70     0.0130     556.44     556.21     0          0
174              MH               MH               232.80     0.0130     556.21     556.16     0          0
LR               MH               6S2046           221.00     0.0130     556.12     556.10     0          0
LR               6S2046           6S2047           300.00     0.0130     556.10     555.66     0          0
LR               6S2047           6S2048           300.70     0.0130     555.66     555.50     0          0
LR               6S2048           6S2049           299.50     0.0130     555.50     555.34     0          0
LR               6S2049           6S2050           291.30     0.0130     555.34     555.00     0          0
LR               MH               MH               207.30     0.0130     558.53     558.40     0          0
LR               MH               MH               200.70     0.0130     558.40     558.07     0          0
LR               MH               MH               301.20     0.0130     559.53     559.31     0          0
LR               MH               MH               274.40     0.0130     559.31     559.22     0          0
LR               MH               MH               299.00     0.0130     559.22     558.97     0          0
LR               MH               MH               288.60     0.0130     558.97     558.53     0          0
LR               7S1511           MH               307.50     0.0130     559.79     559.53     0          0
202              6S875            6S876            440.50     0.0130     556.51     556.58     0          0
204              6S876            6S877            475.50     0.0130     556.50     556.34     0          0
206              6S877            6S878            443.00     0.0130     556.32     555.56     0          0
207              6S878            6S879            229.60     0.0100     555.56     555.78     0          0
211              6S2361           6S553            425.50     0.0130     558.08     556.91     0          0

[ORIFICES]
;;Name           From             To               Type       Offset     Qcoeff     Gated    CloseTime
;;-------------- ---------------- ---------------- ---------- ---------- ---------- -------- ----------
283.1            6S430            6S881            SIDE       556.19     0.650      NO       0

[PUMPS]
;;Name           From             To               PumpCurve  Status   Startup    Shutoff
;;-------------- ---------------- ---------------- ---------- -------- ---------- ----------
287.1            INLET            LRPCP            PC_287.1   ON       553.00     550.20    
293.1            RELIEF           C2CHAMBER        PC_293.1   ON       557.48     554.50    

[CURVES]
;;Name           Type       X-Value    Y-Value
;;-------------- ---------- ---------- ----------
PC_287.1         Pump2      0          0
;
PC_293.1         Pump3      0          0
;

[XSECTIONS]
;;Link           Shape        Geom1      Geom2      Geom3      Geom4      Barrels
;;-------------- ------------ ---------- ---------- ---------- ---------- ----------
22               CIRCULAR     3.00       0          0          0          1
21               CIRCULAR     3.00       0          0          0          1
20               CIRCULAR     3.00       0          0          0          1
19               CIRCULAR     3.00       0          0          0          1
18               CIRCULAR     3.00       0          0          0          1
17               CIRCULAR     3.00       0          0          0          1
16               CIRCULAR     3.00       0          0          0          1
15               CIRCULAR     4.50       0          0          0          1
14               CIRCULAR     4.50       0          0          0          1
13               CIRCULAR     4.50       0          0          0          1
12               CIRCULAR     4.50       0          0          0          1
11               CIRCULAR     4.50       0          0          0          1
10               CIRCULAR     4.50       0          0          0          1
9                CIRCULAR     4.50       0          0          0          1
8                CIRCULAR     5.00       0          0          0          1
7                CIRCULAR     5.00       0          0          0          1
4                CIRCULAR     5.00       0          0          0          1
3                CIRCULAR     5.00       0          0          0          1
2                CIRCULAR     5.00       0          0          0          1
1                CIRCULAR     5.00       0          0          0          1
6                CIRCULAR     5.00       0          0          0          1
5                CIRCULAR     5.00       0          0          0          1
101              CIRCULAR     3.50       0          0          0          1
LR               CIRCULAR     4.00       0          0          0          1
301              CIRCULAR     1.17       0          0          0          1
401              CIRCULAR     1.50       0          0          0          1
22A              CIRCULAR     3.00       0          0          0          1
21A              CIRCULAR     3.00       0          0          0          1
20A              CIRCULAR     3.00       0          0          0          1
19A              CIRCULAR     3.00       0          0          0          1
18A              CIRCULAR     3.00       0          0          0          1
17A              CIRCULAR     3.00       0          0          0          1
16A              CIRCULAR     3.00       0          0          0          1
PLANTINLET       CIRCULAR     5.00       0          0          0          1
PLANT            CIRCULAR     10.00      0          0          0          1
JEROME1          CIRCULAR     3.00       0          0          0          1
C1CHAMBER        CIRCULAR     6.00       0          0          0          1
PONTIACOVE       CIRCULAR     4.00       0          0          0          1
EDGAR1           CIRCULAR     3.00       0          0          0          1
JEROME2          CIRCULAR     3.00       0          0          0          1
WYANBYPASS       RECT_CLOSED  3.00       3.00       0          0          1
P1               HORSESHOE    3.67       0          0          0          1
REND1            CIRCULAR     1.00       0          0          0          1
REND2            CIRCULAR     1.00       0          0          0          1
REND3            CIRCULAR     1.00       0          0          0          1
REND4            CIRCULAR     1.00       0          0          0          1
REND5            CIRCULAR     1.00       0          0          0          1
REND8            CIRCULAR     0.83       0          0          0          1
REND7            CIRCULAR     1.00       0          0          0          1
REND6            CIRCULAR     1.00       0          0          0          1
CGT7             CIRCULAR     0.83       0          0          0          1
CGT6             CIRCULAR     1.00       0          0          0          1
CGT5             CIRCULAR     1.00       0          0          0          1
CGT4             CIRCULAR     1.00       0          0          0          1
CGT3             CIRCULAR     1.00       0          0          0          1
CGT2             CIRCULAR     1.00       0          0          0          1
CGT1             CIRCULAR     1.00       0          0          0          1
LR               CIRCULAR     4.00       0          0          0          1
LR               CIRCULAR     4.00       0          0          0          1
LR               CIRCULAR     4.00       0          0          0          1
LR               CIRCULAR     4.00       0          0          0          1
LR               CIRCULAR     4.00       0          0          0          1
LR               CIRCULAR     4.00       0          0          0          1
LR               CIRCULAR     4.00       0          0          0          1
LR               CIRCULAR     4.00       0          0          0          1
LR               CIRCULAR     4.00       0          0          0          1
174              CIRCULAR     4.00       0          0          0          1
LR               CIRCULAR     4.00       0          0          0          1
LR               CIRCULAR     4.00       0          0          0          1
LR               CIRCULAR     4.00       0          0          0          1
LR               CIRCULAR     4.00       0          0          0          1
LR               CIRCULAR     4.00       0          0          0          1
LR               CIRCULAR     4.00       0          0          0          1
LR               CIRCULAR     4.00       0          0          0          1
LR               CIRCULAR     4.00       0          0          0          1
LR               CIRCULAR     4.00       0          0          0          1
LR               CIRCULAR     4.00       0          0          0          1
LR               CIRCULAR     4.00       0          0          0          1
LR               CIRCULAR     4.00       0          0          0          1
202              CIRCULAR     3.00       0          0          0          1
204              CIRCULAR     3.00       0          0          0          1
206              CIRCULAR     3.00       0          0          0          1
207              CIRCULAR     3.00       0          0          0          1
211              CIRCULAR     2.25       0          0          0          1
283.1            RECT_CLOSED  3.00       0          0          0          

[LOSSES]
;;Link           Inlet      Outlet     Average    Flap Gate
;;-------------- ---------- ---------- ---------- ----------
22               0          0          0          NO
21               0          0          0          NO
20               0          0          0          NO
19               0          0          0          NO
18               0          0          0          NO
17               0          0          0          NO
16               0          0          0          NO
15               0          0          0          NO
14               0          0          0          NO
13               0          0          0          NO
12               0          0          0          NO
11               0          0          0          NO
10               0          0          0          NO
9                0          0          0          NO
8                0          0          0          NO
7                0          0          0          NO
4                0          0          0          NO
3                0          0          0          NO
2                0          0          0          NO
1                0          0          0          NO
6                0          0          0          NO
5                0          0          0          NO
101              0          0          0          NO
LR               0          0          0          NO
301              0          0          0          NO
401              0          0          0          NO
22A              0          0          0          NO
21A              0          0          0          NO
20A              0          0          0          NO
19A              0          0          0          NO
18A              0          0          0          NO
17A              0          0          0          NO
16A              0          0          0          NO
PLANTINLET       0          0          0          NO
PLANT            0          0          0          NO
JEROME1          0          0          0          NO
C1CHAMBER        0          0          0          NO
PONTIACOVE       0          0          0          NO
EDGAR1           0          0          0          NO
JEROME2          0          0          0          NO
WYANBYPASS       0          0          0          NO
P1               0          0          0          NO
REND1            0          0          0          NO
REND2            0          0          0          NO
REND3            0          0          0          NO
REND4            0          0          0          NO
REND5            0          0          0          NO
REND8            0          0          0          NO
REND7            0          0          0          NO
REND6            0          0          0          NO
CGT7             0          0          0          NO
CGT6             0          0          0          NO
CGT5             0          0          0          NO
CGT4             0          0          0          NO
CGT3             0          0          0          NO
CGT2             0          0          0          NO
CGT1             0          0          0          NO
LR               0          0          0          NO
LR               0          0          0          NO
LR               0          0          0          NO
LR               0          0          0          NO
LR               0          0          0          NO
LR               0          0          0          NO
LR               0          0          0          NO
LR               0          0          0          NO
LR               0          0          0          NO
174              0          0          0          NO
LR               0          0          0          NO
LR               0          0          0          NO
LR               0          0          0          NO
LR               0          0          0          NO
LR               0          0          0          NO
LR               0          0          0          NO
LR               0          0          0          NO
LR               0          0          0          NO
LR               0          0          0          NO
LR               0          0          0          NO
LR               0          0          0          NO
LR               0          0          0          NO
202              0          0          0          NO
204              0          0          0          NO
206              0          0          0          NO
207              0          0          0          NO
211              0          0          0          NO

[COORDINATES]
;;Node           X-Coord            Y-Coord
;;-------------- ------------------ ------------------
6S2018           -7900.47           20162.95          
6S2019           -7935.19           20103.72          
6S2020           -7971.86           20030.63          
6S2021           -8008.68           19950.12          
6S2022           -8052.45           19873.57          
6S2023           -8119.81           19839.12          
6S2024           -8188.22           19805.36          
6S2025           -8227.68           19715.42          
6S2026           -8265.59           19612.78          
6S2027           -8332.26           19534.28          
6S2028           -8386.60           19471.69          
6S2029           -8463.52           19388.39          
6S2030           -8548.99           19301.32          
6S2031           -8624.68           19220.63          
6S2032           -8680.47           19049.59          
6S2033           -8723.99           18874.48          
6S2034           -8782.61           18707.09          
6S2036           -9031.65           18540.89          
6S2037           -9137.38           18403.78          
6S2038           -9244.29           18258.42          
6S552            -9314.29           18175.97          
6S881            -9369.42           18010.74          
6S2035           -8909.36           18620.38          
6S553            -9543.04           18266.53          
6S2050           -9132.67           18238.27          
6S1066           -9003.42           18768.43          
6S2045           -8376.19           19753.49          
6S2019A          -7887.35           20080.97          
6S2020A          -7928.30           20001.46          
6S2021A          -7967.37           19926.73          
6S2022A          -8015.76           19840.86          
6S2023A          -8088.33           19796.34          
6S2024A          -8164.63           19767.72          
6S430            -9439.57           18031.28          
INLET            -9299.26           17991.52          
LRPCP            -9310.88           17940.07          