;; SWMM5 .inp converted from XPSWMM .xp file
;; Generated by XPSWMM Card Reader
;; Source format: XP_CARD | Original title: SUNGAI PETANI - raised spill crest levels at 7 nodes

[TITLE]
;;Project Title/Notes
SUNGAI PETANI - raised spill crest levels at 7 nodes

[OPTIONS]
FLOW_UNITS           CMS
INFILTRATION         HORTON
FLOW_ROUTING         DYNWAVE
LINK_OFFSETS         DEPTH
MIN_SLOPE            0.0
ALLOW_PONDING        NO
SKIP_STEADY_STATE    NO
ROUTING_STEP         00:00:20
VARIABLE_STEP        0.75
INERTIAL_DAMPING     PARTIAL
NORMAL_FLOW_LIMITED  BOTH
MAX_TRIALS           4
HEAD_TOLERANCE       .001

[JUNCTIONS]
;;Name           Elev       MaxDepth   InitDepth  SurDepth   Aponded
;;-------------- ---------- ---------- ---------- ---------- ----------
P0               3.00       0          11.60      0          0
P400             4.58       0          10.02      0          0
P1100            2.11       0          8.54       0          0
P2100            1.50       0          8.22       0          0
P2493            8.41       0          9.01       0          0
P2593            1.70       0          7.89       0          0
P2893            1.50       0          8.48       0          0
P2999            1.50       0          9.67       0          0
P3093            4.00       0          6.22       0          0
P3590            1.50       0          6.88       0          0
P3716            5.12       0          5.12       0          0
P3993            1.50       0          4.69       0          0
P4406            1.50       0          6.61       0          0
P4494            3.80       0          3.38       0          0
P4693            1.50       0          5.23       0          0
P4923            1.63       0          4.23       0          0
P5493            2.92       0          3.10       0          0
P5593            1.92       0          2.72       0          0
P5889            2.00       0          2.72       0          0
P6192            2.10       0          2.89       0          0
P6293            1.50       0          4.30       0          0
P6593            2.55       0          2.67       0          0
P6691            1.80       0          3.36       0          0
P7692            1.90       0          1.51       0          0
P7793            2.94       0          2.13       0          0
P7893            3.41       0          1.65       0          0
P7993            3.46       0          0          0          0
P8093            2.87       0          0          0          0
P8193            2.53       0          1.60       0          0
P8406            2.91       0          0          0          0
P                2.62       0          0          0          0
P5551            3.80       0          2.21       0          0
P5574            3.80       0          2.21       0          0
P6037            3.51       0          2.56       0          0
P6039            3.51       0          2.56       0          0
P7210            3.30       0          1.93       0          0
P7213            2.70       0          1.93       0          0
P7595            5.10       0          1.74       0          0
P7625            5.10       0          1.74       0          0
P8146            3.70       0          0          0          0
P8163            3.70       0          0          0          0

[CONDUITS]
;;Name           From             To               Length     Roughness  InOffset   OutOffset  InitFlow   MaxFlow
;;-------------- ---------------- ---------------- ---------- ---------- ---------- ---------- ---------- ----------
PL1              P400             P0               400.00     0          -8.71      -10.29     0          0
PL5              P1100            P400             700.00     0          -7.23      -8.71      0          0
PL12             P2100            P1100            1000.00    0          -6.91      -7.23      0          0
PL22             P2493            P2100            393.00     0          -7.70      -6.91      0          0
PL26             P2593            P2493            100.00     0          -6.58      -7.70      0          0
PL27             P2893            P2593            300.00     0          -7.17      -6.58      0          0
PL30             P2999            P2893            106.00     0          -8.36      -7.17      0          0
PL31             P3093            P2999            94.00      0          -4.91      -8.36      0          0
PL32             P3590            P3093            497.00     0          -5.57      -4.91      0          0
PL37             P3716            P3590            126.00     0          -3.81      -5.57      0          0
PL38             P3993            P3716            277.00     0          -3.38      -3.81      0          0
PL41             P4406            P3993            413.00     0          -5.30      -3.38      0          0
PL45             P4494            P4406            88.00      0          -2.07      -5.30      0          0
PL46             P4693            P4494            199.00     0          -3.92      -2.07      0          0
PL48             P4923            P4693            230.00     0          -2.92      -3.92      0          0
PL50             P5493            P4923            570.00     0          -1.79      -2.92      0          0
PL56             P5551            P5493            58.00      0          -0.91      -1.79      0          0
PL57             P5889            P5593            296.00     0          -1.41      -1.41      0          0
PL60             P6037            P5889            148.00     0          -1.25      -1.41      0          0
PL63             P6293            P6192            101.00     0          -2.99      -1.58      0          0
PL64             P6593            P6293            300.00     0          -1.36      -2.99      0          0
PL67             P6691            P6593            98.00      0          -2.05      -1.36      0          0
PL68             P7210            P6691            519.00     0          -0.63      -2.05      0          0
PL78             P7793            P7692            101.00     0          -0.82      -0.20      0          0
PL79             P7893            P7793            100.00     0          -0.34      -0.82      0          0
PL80             P7993            P7893            100.00     0          0.13       -0.34      0          0
PL81             P8093            P7993            100.00     0          0.12       0.13       0          0
PL82             P8146            P8093            53.00      0          0.61       0.12       0          0
PL83             P8406            P8193            213.00     0          0.20       -0.29      0          0
PL85             P                P8406            1.00       0          0.20       0.20       0          0
PL77             P7692            P7625            67.00      0          -0.20      -0.43      0          0
A                P5574            P5551            22.50      0.0350     -0.91      -0.91      0          0
PL561            P5593            P5574            19.00      0          -1.41      -0.91      0          0
C                P6039            P6037            2.00       0.0350     -1.25      -1.25      0          0
PL611            P6192            P6039            153.00     0          -1.58      -1.25      0          0
1                P7213            P7210            3.00       0.0350     -0.63      -0.63      0          0
3                P7625            P7595            8.00       0.0350     -0.43      -0.43      0          0
5                P8163            P8146            17.80      0.0350     0.61       0.61       0          0
PL731            P7595            P7213            382.00     0          -0.43      -0.63      0          0
PL821            P8193            P8163            30.00      0          -0.29      0.61       0          0

[XSECTIONS]
;;Link           Shape        Geom1      Geom2      Geom3      Geom4      Barrels
;;-------------- ------------ ---------- ---------- ---------- ---------- ----------
PL1              IRREGULAR    13.29      0          0          0          1
PL5              IRREGULAR    9.34       0          0          0          1
PL12             IRREGULAR    8.40       0          0          0          1
PL22             IRREGULAR    7.95       0          0          0          1
PL26             IRREGULAR    8.28       0          0          0          1
PL27             IRREGULAR    6.90       0          0          0          1
PL30             IRREGULAR    7.20       0          0          0          1
PL31             IRREGULAR    8.81       0          0          0          1
PL32             IRREGULAR    4.93       0          0          0          1
PL37             IRREGULAR    5.74       0          0          0          1
PL38             IRREGULAR    4.26       0          0          0          1
PL41             IRREGULAR    3.26       0          0          0          1
PL45             IRREGULAR    5.86       0          0          0          1
PL46             IRREGULAR    3.85       0          0          0          1
PL48             IRREGULAR    4.55       0          0          0          1
PL50             IRREGULAR    3.55       0          0          0          1
PL56             IRREGULAR    3.72       0          0          0          1
PL57             IRREGULAR    3.32       0          0          0          1
PL60             IRREGULAR    2.24       0          0          0          1
PL63             IRREGULAR    1.74       0          0          0          1
PL64             IRREGULAR    3.89       0          0          0          1
PL67             IRREGULAR    3.03       0          0          0          1
PL68             IRREGULAR    3.83       0          0          0          1
PL78             IRREGULAR    1.95       0          0          0          1
PL79             IRREGULAR    3.75       0          0          0          1
PL80             IRREGULAR    3.33       0          0          0          1
PL81             IRREGULAR    2.75       0          0          0          1
PL82             IRREGULAR    2.41       0          0          0          1
PL83             IRREGULAR    2.70       0          0          0          1
PL85             IRREGULAR    2.42       0          0          0          1
PL77             IRREGULAR    2.09       0          0          0          1
A                TRAPEZOIDAL  4.71       55.50      0          0          1
PL561            IRREGULAR    2.82       0          0          0          1
C                TRAPEZOIDAL  4.76       55.00      0          0          1
PL611            IRREGULAR    3.66       0          0          0          1
1                TRAPEZOIDAL  3.31       20.50      0          0          1
3                TRAPEZOIDAL  5.53       27.00      0          0          1
5                TRAPEZOIDAL  3.08       10.70      0          0          1
PL731            IRREGULAR    2.88       0          0          0          1
PL821            IRREGULAR    2.70       0          0          0          1

[LOSSES]
;;Link           Inlet      Outlet     Average    Flap Gate
;;-------------- ---------- ---------- ---------- ----------
PL1              0          0          0          NO
PL5              0          0          0          NO
PL12             0          0          0          NO
PL22             0          0          0          NO
PL26             0          0          0          NO
PL27             0          0          0          NO
PL30             0          0          0          NO
PL31             0          0          0          NO
PL32             0          0          0          NO
PL37             0          0          0          NO
PL38             0          0          0          NO
PL41             0          0          0          NO
PL45             0          0          0          NO
PL46             0          0          0          NO
PL48             0          0          0          NO
PL50             0          0          0          NO
PL56             0          0          0          NO
PL57             0          0          0          NO
PL60             0          0          0          NO
PL63             0          0          0          NO
PL64             0          0          0          NO
PL67             0          0          0          NO
PL68             0          0          0          NO
PL78             0          0          0          NO
PL79             0          0          0          NO
PL80             0          0          0          NO
PL81             0          0          0          NO
PL82             0          0          0          NO
PL83             0          0          0          NO
PL85             0          0          0          NO
PL77             0          0          0          NO
A                0          0          0          NO
PL561            0          0          0          NO
C                0          0          0          NO
PL611            0          0          0          NO
1                0          0          0          NO
3                0          0          0          NO
5                0          0          0          NO
PL731            0          0          0          NO
PL821            0          0          0          NO

[COORDINATES]
;;Node           X-Coord            Y-Coord
;;-------------- ------------------ ------------------
P0               290.68             -269.04           
P400             345.35             -262.52           
P1100            381.34             -229.80           
P2100            334.89             -205.86           
P2493            301.91             -207.00           
P2593            260.00             -201.14           
P2893            218.72             -174.75           
P2999            270.04             -153.46           
P3093            306.68             -146.55           
P3590            346.35             -143.18           
P3716            386.59             -117.97           
P3993            356.57             -74.72            
P4406            311.70             -73.12            
P4494            265.59             -71.23            
P4693            223.45             -53.88            
P4923            239.55             -17.12            
P5493            282.86             -10.67            
P5593            343.35             61.95             
P5889            280.83             51.44             
P6192            294.15             119.73            
P6293            341.81             123.08            
P6593            383.84             163.16            
P6691            329.21             176.67            
P7692            339.65             247.92            
P7793            377.92             265.89            
P7893            344.60             302.26            
P7993            301.14             308.97            
P8093            258.03             318.26            
P8193            297.36             388.93            
P8406            335.41             399.25            
P                377.97             421.98            
P5551            331.00             -3.40             
P5574            384.76             19.17             
P6037            220.03             65.08             
P6039            247.20             109.80            
P7210            251.10             186.31            
P7213            222.27             218.97            
P7595            266.13             235.97            
P7625            304.50             238.28            
P8146            218.94             339.53            
P8163            256.14             370.34            

[MAP]
DIMENSIONS 218.72 -269.04 386.59 421.98
Units      None

[REPORT]
INPUT            YES
SUBCATCHMENTS    ALL
NODES            ALL
LINKS            ALL



