;; SWMM5 .inp converted from XPSWMM .xp file
;; Generated by XPSWMM Card Reader
;; Source format: XP_CARD | Original title: I-1, I-2 BASINS:  EXISTING LAND USE: EXISTING SYSTEM

[TITLE]
;;Project Title/Notes
I-1, I-2 BASINS:  EXISTING LAND USE: EXISTING SYSTEM

[OPTIONS]
FLOW_UNITS           CFS
INFILTRATION         HORTON
FLOW_ROUTING         DYNWAVE
LINK_OFFSETS         DEPTH
MIN_SLOPE            0.0
ALLOW_PONDING        NO
SKIP_STEADY_STATE    NO
ROUTING_STEP         00:00:02
VARIABLE_STEP        0.75
INERTIAL_DAMPING     NONE
NORMAL_FLOW_LIMITED  BOTH
MAX_TRIALS           30

[JUNCTIONS]
;;Name           Elev       MaxDepth   InitDepth  SurDepth   Aponded
;;-------------- ---------- ---------- ---------- ---------- ----------
900000           141.00     0          0          0          0
999999           141.00     0          0          0          0

[STORAGE]
;;Name           Elev       MaxDepth   InitDepth  Shape      Curve/Params
;;-------------- ---------- ---------- ---------- ---------- ----------
900503           141.20     0          4.82       FUNCTIONAL 200.00 0          0
900500           149.00     0          5.36       FUNCTIONAL 0 0          0
920500           141.00     0          0          FUNCTIONAL 33000.00 0          0
900505           141.50     0          4.03       FUNCTIONAL 200.00 0          0
900507           141.31     0          3.57       FUNCTIONAL 200.00 0          0
900509           143.46     0          3.35       FUNCTIONAL 200.00 0          0
900511           144.75     0          2.95       FUNCTIONAL 200.00 0          0
900513           145.78     0          1.70       FUNCTIONAL 200.00 0          0
900515           145.40     0          1.40       FUNCTIONAL 200.00 0          0
900517           151.50     0          0          FUNCTIONAL 200.00 0          0
901501           140.44     0          4.53       FUNCTIONAL 200.00 0          0
901503           140.00     0          3.60       FUNCTIONAL 0 0          0
901505           140.70     0          3.50       FUNCTIONAL 0 0          0
901507           141.80     0          3.00       FUNCTIONAL 200.00 0          0
901509           143.90     0          0          FUNCTIONAL 200.00 0          0
901511           142.00     0          0          FUNCTIONAL 87000.00 0          0
902501           145.48     0          1.57       FUNCTIONAL 0 0          0
903501           145.91     0          0          FUNCTIONAL 200.00 0          0
904505           146.54     0          0          FUNCTIONAL 200.00 0          0
904501           143.46     0          1.12       FUNCTIONAL 200.00 0          0
904503           145.97     0          0          FUNCTIONAL 200.00 0          0
904507           146.54     0          0          FUNCTIONAL 200.00 0          0
904509           147.14     0          0          FUNCTIONAL 200.00 0          0
904511           148.17     0          0          FUNCTIONAL 200.00 0          0
904513           149.50     0          0          FUNCTIONAL 200.00 0          0
905501           150.22     0          0          FUNCTIONAL 200.00 0          0
905503           151.29     0          0          FUNCTIONAL 200.00 0          0
905505           153.35     0          0          FUNCTIONAL 200.00 0          0
906501           146.50     0          0.80       FUNCTIONAL 200.00 0          0
910503           142.50     0          5.34       FUNCTIONAL 200.00 0          0
910505           144.00     0          5.30       FUNCTIONAL 200.00 0          0
920503           141.00     0          0          FUNCTIONAL 101500.00 0          0
910507           143.30     0          5.00       FUNCTIONAL 200.00 0          0
910509           143.40     0          4.45       FUNCTIONAL 200.00 0          0
910511           144.50     0          4.05       FUNCTIONAL 200.00 0          0
910513           144.70     0          3.60       FUNCTIONAL 200.00 0          0
911503           144.30     0          4.16       FUNCTIONAL 200.00 0          0
911505           146.20     0          2.80       FUNCTIONAL 200.00 0          0
911507           146.07     0          2.40       FUNCTIONAL 200.00 0          0
912503           147.04     0          2.20       FUNCTIONAL 200.00 0          0

[CONDUITS]
;;Name           From             To               Length     Roughness  InOffset   OutOffset  InitFlow   MaxFlow
;;-------------- ---------------- ---------------- ---------- ---------- ---------- ---------- ---------- ----------
900001           930001           900500           370.00     0.0150     0          0          0          0
920000           920500           900503           300.00     0.0150     138.80     137.20     0          0
900003           930003           900503           330.00     0.0150     0          0          0          0
900005           930005           900505           690.00     0.0150     0          0          0          0
900007           930007           900507           320.00     0.0150     0          0          0          0
900009           930009           900509           370.00     0.0150     0          0          0          0
900011           930011           900511           1200.00    0.0150     0          0          0          0
900013           930013           900513           240.00     0.0150     0          0          0          0
900015           930015           900515           750.00     0.0150     0          0          0          0
901001           901501           900503           360.00     0.0150     134.47     134.18     0          0
901003           901503           901501           600.00     0.0150     135.40     134.47     0          0
901005           901505           901503           300.00     0.0150     135.50     135.40     0          0
901007           901507           901505           300.00     0.0150     136.00     135.50     0          0
901009           931009           901507           640.00     0.0150     0          0          0          0
901010           901511           901509           200.00     0.0150     137.80     139.40     0          0
902001           902501           900509           700.00     0.0150     137.43     135.65     0          0
903001           933001           900511           300.00     0.0150     0.05       0          0          0
903003           904505           903501           370.00     0.0150     141.51     141.16     0          0
904001           904001           900511           150.00     0.0150     0          0          0          0
904003           904003           904501           180.00     0.0150     0          0          0          0
904005           904005           904503           340.00     0.0150     0          0          0          0
904007           904507           904505           630.00     0.0150     142.34     140.87     0          0
904009           904009           904507           300.00     0.0150     0          0          0          0
904011           904011           904509           400.00     0.0150     0          0          0          0
904013           904013           904511           780.00     0.0150     0          0          0          0
905001           905001           904505           600.00     0.0150     0          0.72       0          0
905003           905003           905501           180.00     0.0150     0          0          0          0
905005           905005           905503           600.00     0.0150     0          0          0          0
906001           906501           900513           650.00     0.0150     138.20     138.20     0          0
910001           910503           900500           570.00     0.0150     133.66     125.84     0          0
910003           910505           910503           460.00     0.0150     133.70     133.66     0          0
920001           920503           910503           200.00     0.0150     137.80     134.62     0          0
910005           910507           910505           320.00     0.0150     134.00     133.70     0          0
910007           940007           910507           450.00     0.0150     0          0          0          0
910009           940009           910509           430.00     0.0150     0          0          0          0
910011           940011           910511           350.00     0.0150     0          0          0          0
911001           941001           910505           810.00     0.0150     0          0.60       0          0
911003           941003           911503           560.00     0.0150     0          0.16       0          0
911005           941005           911505           280.00     0.0150     0          0          0          0
912001           942001           910507           450.00     0.0150     0          1.40       0          0
999990           900000           999999           100.00     0.0100     128.00     127.00     0          0

[WEIRS]
;;Name           From             To               Type       CrestHt    Qcoeff     Gated    EndCon   EndCoeff   Surcharge
;;-------------- ---------------- ---------------- ---------- ---------- ---------- -------- -------- ---------- ----------
MUL27            900500           900000           TRANSVERSE 133.28     1.840      NO       0        0          YES

[XSECTIONS]
;;Link           Shape        Geom1      Geom2      Geom3      Geom4      Barrels
;;-------------- ------------ ---------- ---------- ---------- ---------- ----------
900001           RECT_CLOSED  5.00       10.00      0          0          1
920000           CIRCULAR     2.00       0          0          0          1
900003           RECT_CLOSED  4.00       10.00      0          0          1
900005           RECT_CLOSED  4.00       10.00      0          0          1
900007           RECT_CLOSED  4.00       8.00       0          0          1
900009           RECT_CLOSED  4.00       8.00       0          0          1
900011           HORSESHOE    4.00       6.33       0          0          1
900013           CIRCULAR     4.00       0          0          0          1
900015           CIRCULAR     3.50       0          0          0          1
901001           HORSESHOE    3.00       4.83       0          0          1
901003           RECT_CLOSED  2.00       7.00       0          0          1
901005           CIRCULAR     3.50       0          0          0          1
901007           CIRCULAR     3.50       0          0          0          1
901009           CIRCULAR     3.00       0          0          0          1
901010           CIRCULAR     2.50       0          0          0          1
902001           CIRCULAR     3.00       0          0          0          1
903001           CIRCULAR     2.50       0          0          0          1
903003           HORSESHOE    2.42       3.75       0          0          1
904001           CIRCULAR     3.50       0          0          0          1
904003           HORSESHOE    3.17       5.00       0          0          1
904005           HORSESHOE    3.17       5.00       0          0          1
904007           CIRCULAR     2.50       0          0          0          1
904009           CIRCULAR     2.50       0          0          0          1
904011           CIRCULAR     2.50       0          0          0          1
904013           CIRCULAR     2.00       0          0          0          1
905001           CIRCULAR     2.50       0          0          0          1
905003           CIRCULAR     2.50       0          0          0          1
905005           CIRCULAR     2.00       0          0          0          1
906001           CIRCULAR     3.50       0          0          0          1
910001           HORSESHOE    3.58       5.67       0          0          1
910003           HORSESHOE    3.58       5.67       0          0          1
920001           CIRCULAR     2.00       0          0          0          1
910005           CIRCULAR     4.00       0          0          0          1
910007           CIRCULAR     3.50       0          0          0          1
910009           CIRCULAR     3.50       0          0          0          1
910011           CIRCULAR     3.00       0          0          0          1
911001           CIRCULAR     3.50       0          0          0          1
911003           CIRCULAR     3.00       0          0          0          1
911005           CIRCULAR     3.00       0          0          0          1
912001           CIRCULAR     3.00       0          0          0          1
999990           RECT_CLOSED  13.00      100.00     0          0          1
MUL27            RECT_OPEN    0          28.00      0          0          

[LOSSES]
;;Link           Inlet      Outlet     Average    Flap Gate
;;-------------- ---------- ---------- ---------- ----------
900001           0          0          0          NO
920000           0          0          0          NO
900003           0          0          0          NO
900005           0          0          0          NO
900007           0          0          0          NO
900009           0          0          0          NO
900011           0          0          0          NO
900013           0          0          0          NO
900015           0          0          0          NO
901001           0          0          0          NO
901003           0          0          0          NO
901005           0          0          0          NO
901007           0          0          0          NO
901009           0          0          0          NO
901010           0          0          0          NO
902001           0          0          0          NO
903001           0          0          0          NO
903003           0          0          0          NO
904001           0          0          0          NO
904003           0          0          0          NO
904005           0          0          0          NO
904007           0          0          0          NO
904009           0          0          0          NO
904011           0          0          0          NO
904013           0          0          0          NO
905001           0          0          0          NO
905003           0          0          0          NO
905005           0          0          0          NO
906001           0          0          0          NO
910001           0          0          0          NO
910003           0          0          0          NO
920001           0          0          0          NO
910005           0          0          0          NO
910007           0          0          0          NO
910009           0          0          0          NO
910011           0          0          0          NO
911001           0          0          0          NO
911003           0          0          0          NO
911005           0          0          0          NO
912001           0          0          0          NO
999990           0          0          0          NO

[COORDINATES]
;;Node           X-Coord            Y-Coord
;;-------------- ------------------ ------------------
900503           512.77             92.48             
900500           512.77             72.48             
920500           372.77             92.48             
900505           492.77             92.48             
900507           472.77             92.48             
900509           452.77             92.48             
900511           432.77             92.48             
900513           312.30             141.61            
900515           294.17             133.16            
900517           276.04             124.71            
901501           498.63             106.62            
901503           484.49             120.76            
901505           470.35             134.90            
901507           456.20             149.05            
901509           442.06             163.19            
901511           427.92             177.33            
902501           452.77             72.48             
903501           412.77             92.48             
904505           295.97             160.26            
904501           392.77             92.48             
904503           379.99             99.67             
904507           276.04             162.00            
904509           256.12             163.75            
904511           236.20             165.49            
904513           216.27             167.23            
905501           281.83             174.40            
905503           267.68             188.54            
905505           253.54             202.69            
906501           292.98             146.79            
910503           532.77             72.48             
910505           551.57             79.32             
920503           551.57             65.64             
910507           566.89             92.17             
910509           576.89             109.49            
910511           586.89             126.81            
910513           596.89             144.13            
911503           571.57             79.32             
911505           591.57             79.32             
911507           611.57             79.32             
912503           585.68             99.01             
900000           373.06             92.78             
999999           393.06             92.78             

[MAP]
DIMENSIONS 216.27 65.64 611.57 202.69
Units      None

[REPORT]
INPUT            YES
SUBCATCHMENTS    ALL
NODES            ALL
LINKS            ALL



