;; SWMM5 .inp converted from XPSWMM .xp file
;; Generated by XPSWMM Card Reader
;; Source format: XP_CARD | Original title: Runoff Block for Topeka Blvd. - 10-year design storm

[TITLE]
;;Project Title/Notes
Runoff Block for Topeka Blvd. - 10-year design storm

[OPTIONS]
FLOW_UNITS           CFS
INFILTRATION         HORTON
FLOW_ROUTING         DYNWAVE
LINK_OFFSETS         DEPTH
MIN_SLOPE            0.0
ALLOW_PONDING        NO
SKIP_STEADY_STATE    NO
ROUTING_STEP         00:00:20
VARIABLE_STEP        0.75
INERTIAL_DAMPING     PARTIAL
NORMAL_FLOW_LIMITED  BOTH
MAX_TRIALS           50
HEAD_TOLERANCE       0.0033

[JUNCTIONS]
;;Name           Elev       MaxDepth   InitDepth  SurDepth   Aponded
;;-------------- ---------- ---------- ---------- ---------- ----------
25040075         877.25     0          0          0          0
26710021         877.34     0          0          0          0
26710056         876.22     0          0          0          0
26710046         876.66     0          0          0          0
26710092         874.06     0          0          0          0
26710095         877.34     0          0          0          0
26710099         875.98     0          0          0          0
26620004         875.85     0          0          0          0
26620086         878.20     0          0          0          0
26710102         877.80     0          0          0          0
26710183         876.68     0          0          0          0
26710144         874.71     0          0          0          0
26710124         876.25     0          0          0          0
26620093         874.83     0          0          0          0
26620009         874.95     0          0          0          0
25130093         875.93     0          0          0          0
25130101         877.21     0          0          0          0
25040040         875.49     0          0          0          0
25040018         875.79     0          0          0          0
26710044         875.87     0          0          0          0
25040088         878.89     0          0          0          0
25130052         873.71     0          0          0          0
25130134         866.33     0          0          0          0
25040999         900.00     0          0          0          0
25130132         900.00     0          0          0          0

[CONDUITS]
;;Name           From             To               Length     Roughness  InOffset   OutOffset  InitFlow   MaxFlow
;;-------------- ---------------- ---------------- ---------- ---------- ---------- ---------- ---------- ----------
25041075         25040075         26710021         500.00     0.0150     871.87     870.22     0          0
26711021         26710021         26710044         300.00     0.0150     870.14     868.52     0          0
26711056         26710056         26710044         400.00     0.0150     870.52     869.37     0          0
26711044         26710044         26710046         350.00     0.0150     867.83     866.43     0          0
26711046         26710046         26710092         450.00     0.0150     866.43     864.71     0          0
26711092         26710092         26710095         250.00     0.0150     864.18     864.04     0          0
26711095         26710095         26710099         340.00     0.0150     863.94     862.98     0          0
26711099         26710099         26620004         200.00     0.0150     862.98     862.85     0          0
26621086         26620086         26710102         425.00     0.0180     869.87     868.59     0          0
26711102         26710102         26710183         480.00     0.0180     868.47     867.17     0          0
26711183         26710183         26710144         530.00     0.0180     866.98     865.24     0          0
26711144         26710144         26710124         410.00     0.0150     865.12     863.30     0          0
26711124         26710124         26620004         435.00     0.0150     863.30     862.55     0          0
26621093         26620093         26620009         360.00     0.0150     866.74     865.30     0          0
26621009         26620009         26620004         460.00     0.0150     865.10     863.10     0          0
26621004         26620004         25130101         500.00     0.0150     861.65     860.61     0          0
25131093         25130093         25130101         800.00     0.0150     864.93     860.61     0          0
25131101         25130101         25040088         300.00     0.0150     860.51     859.19     0          0
25041018         25040018         25040040         550.00     0.0180     865.04     863.34     0          0
25041040         25040040         25040088         330.00     0.0180     863.31     862.54     0          0
25049018         25040018         25130052         575.00     0.0150     864.84     862.31     0          0
25131052         25130052         25130134         85.00      0.0240     862.23     860.83     0          0
25041088         25040088         25040999         900.00     0.0180     870.36     874.50     0          0
25041999         25040999         25130052         500.00     0.0180     874.50     867.71     0          0
25048018         ?                ?                675.00     0.0190     868.71     865.50     0          0

[XSECTIONS]
;;Link           Shape        Geom1      Geom2      Geom3      Geom4      Barrels
;;-------------- ------------ ---------- ---------- ---------- ---------- ----------
25041075         CIRCULAR     2.00       0          0          0          1
26711021         CIRCULAR     2.00       0          0          0          1
26711056         CIRCULAR     2.00       0          0          0          1
26711044         CIRCULAR     2.25       0          0          0          1
26711046         CIRCULAR     2.50       0          0          0          1
26711092         CIRCULAR     3.00       0          0          0          1
26711095         CIRCULAR     3.00       0          0          0          1
26711099         CIRCULAR     3.00       0          0          0          1
26621086         CIRCULAR     2.00       0          0          0          1
26711102         CIRCULAR     2.25       0          0          0          1
26711183         CIRCULAR     2.50       0          0          0          1
26711144         CIRCULAR     3.00       0          0          0          1
26711124         CIRCULAR     3.00       0          0          0          1
26621093         CIRCULAR     2.25       0          0          0          1
26621009         CIRCULAR     2.50       0          0          0          1
26621004         CIRCULAR     4.00       0          0          0          1
25131093         CIRCULAR     2.25       0          0          0          1
25131101         CIRCULAR     4.50       0          0          0          1
25041018         CIRCULAR     2.25       0          0          0          1
25041040         CIRCULAR     2.25       0          0          0          1
25049018         CIRCULAR     3.00       0          0          0          1
25131052         CIRCULAR     4.00       0          0          0          1
25041088         CIRCULAR     2.50       0          0          0          1
25041999         CIRCULAR     2.50       0          0          0          1
25048018         CIRCULAR     2.50       0          0          0          1

[LOSSES]
;;Link           Inlet      Outlet     Average    Flap Gate
;;-------------- ---------- ---------- ---------- ----------
25041075         0          0          0          NO
26711021         0          0          0          NO
26711056         0          0          0          NO
26711044         0          0          0          NO
26711046         0          0          0          NO
26711092         0          0          0          NO
26711095         0          0          0          NO
26711099         0          0          0          NO
26621086         0          0          0          NO
26711102         0          0          0          NO
26711183         0          0          0          NO
26711144         0          0          0          NO
26711124         0          0          0          NO
26621093         0          0          0          NO
26621009         0          0          0          NO
26621004         0          0          0          NO
25131093         0          0          0          NO
25131101         0          0          0          NO
25041018         0          0          0          NO
25041040         0          0          0          NO
25049018         0          0          0          NO
25131052         0          0          0          NO
25041088         0          0          0          NO
25041999         0          0          0          NO
25048018         0          0          0          NO

[COORDINATES]
;;Node           X-Coord            Y-Coord
;;-------------- ------------------ ------------------
25040075         327.68             -61.30            
26710021         388.49             -66.57            
26710056         418.03             -32.49            
26710046         392.07             0.14              
26710092         391.94             17.88             
26710095         391.50             41.82             
26710099         391.99             66.96             
26620004         393.47             98.13             
26620086         516.96             102.67            
26710102         496.84             101.19            
26710183         472.68             99.55             
26710144         446.77             98.69             
26710124         420.87             98.94             
26620093         396.95             143.46            
26620009         395.72             121.78            
25130093         363.14             132.78            
25130101         362.26             98.19             
25040040         329.12             95.61             
25040018         310.73             98.16             
26710044         392.20             -32.94            
25040088         360.07             78.72             
25130052         306.82             76.94             
25130134         288.08             76.63             
25040999         336.46             73.60             
25130132         291.08             97.13             

[MAP]
DIMENSIONS 288.08 -66.57 516.96 143.46
Units      None

[REPORT]
INPUT            YES
SUBCATCHMENTS    ALL
NODES            ALL
LINKS            ALL



