;; SWMM5 .inp converted from XPSWMM .xp file
;; Generated by XPSWMM Card Reader
;; Source format: XP_CARD | Original title: RUNOFF: 10-YR_24-HR 1ST VERIFICATION RUN

[TITLE]
;;Project Title/Notes
RUNOFF: 10-YR_24-HR 1ST VERIFICATION RUN

[OPTIONS]
FLOW_UNITS           CFS
INFILTRATION         HORTON
FLOW_ROUTING         DYNWAVE
LINK_OFFSETS         DEPTH
MIN_SLOPE            0.0
ALLOW_PONDING        NO
SKIP_STEADY_STATE    NO
ROUTING_STEP         00:00:30
VARIABLE_STEP        0.75
INERTIAL_DAMPING     PARTIAL
NORMAL_FLOW_LIMITED  BOTH
MAX_TRIALS           50
HEAD_TOLERANCE       0.0033

[JUNCTIONS]
;;Name           Elev       MaxDepth   InitDepth  SurDepth   Aponded
;;-------------- ---------- ---------- ---------- ---------- ----------
4135             858.00     0          0          0          0
4970             865.00     0          0          0          0
4975             871.70     0          0          0          0
4980             869.59     0          0          0          0
4995             875.00     0          0          0          0
5000             875.00     0          0          0          0
5010             884.11     0          0          0          0
5025             894.10     0          0          0          0
5040             899.59     0          0          0          0
5050             900.08     0          0          0          0
5055             900.11     0          0          0          0
5065             907.01     0          0          0          0
5075             909.40     0          0          0          0
5086             925.00     0          0          0          0
5095             926.25     0          0          0          0
5105             928.82     0          0          0          0
5115             940.84     0          0          0          0
5120             939.67     0          0          0          0
5125             942.50     0          0          0          0
5135             946.84     0          0          0          0
5136             956.00     0          0          0          0
5140             929.30     0          0          0          0
5141             928.40     0          0          0          0
5150             926.60     0          0          0          0
5155             928.75     0          0          0          0
5165             935.55     0          0          0          0
5175             939.45     0          0          0          0
5176             952.97     0          0          0          0
5177             954.60     0          0          0          0
5178             956.22     0          0          0          0
5180             905.41     0          0          0          0
5195             912.41     0          0          0          0
5205             889.34     0          0          0          0
5215             912.00     0          0          0          0
5780             934.00     0          0          0          0
4976             871.70     0          0          0          0
4985             872.60     0          0          0          0
4990             872.60     0          0          0          0
5005             884.11     0          0          0          0
5015             928.82     0          0          0          0
5020             891.65     0          0          0          0
5026             895.55     0          0          0          0
5027             897.00     0          0          0          0
5030             898.85     0          0          0          0
5035             899.65     0          0          0          0
5045             900.00     0          0          0          0
5060             907.01     0          0          0          0
5070             909.40     0          0          0          0
5080             911.90     0          0          0          0
5085             911.90     0          0          0          0
5091             921.00     0          0          0          0
5100             929.00     0          0          0          0
5130             946.21     0          0          0          0
5145             927.52     0          0          0          0
5160             932.35     0          0          0          0
5170             936.20     0          0          0          0
5185             900.08     0          0          0          0
5190             908.30     0          0          0          0
5200             875.00     0          0          0          0
5210             891.00     0          0          0          0
88-E             893.00     0          0          0          0
96-E             954.00     0          0          0          0
84-E             989.00     0          0          0          0
64-E             996.00     0          0          0          0
77-E             939.00     0          0          0          0
97-E             880.00     0          0          0          0
92-E             875.00     0          0          0          0
81-E             944.00     0          0          0          0

[CONDUITS]
;;Name           From             To               Length     Roughness  InOffset   OutOffset  InitFlow   MaxFlow
;;-------------- ---------------- ---------------- ---------- ---------- ---------- ---------- ---------- ----------
CHME8240         4975             4970             84.00      0          859.83     849.50     0          0
8245             4976             4975             56.00      0.0150     860.41     859.83     0          0
8246             4980             4976             40.00      0.0150     860.82     860.41     0          0
8250             4985             4980             281.00     0          863.95     860.82     0          0
8255             4990             4985             52.00      0.0150     865.30     863.95     0          0
8260             4995             4990             179.00     0          863.90     865.30     0          0
8265             5000             4995             80.00      0.0150     864.70     863.90     0          0
8270             5005             5000             283.00     0          869.50     864.70     0          0
8275             5010             5005             130.00     0.0150     871.31     869.50     0          0
8280             5015             5010             120.00     0          872.05     871.31     0          0
8285             5020             5015             370.00     0.0240     879.85     872.05     0          0
8290             5025             5020             385.00     0.0150     884.45     879.85     0          0
8291             5026             5025             120.00     0.0150     885.25     884.45     0          0
8292             5027             5026             95.00      0.0150     886.40     885.25     0          0
8293             5030             5027             111.00     0.0150     887.25     886.40     0          0
8295             5035             5030             98.00      0.0150     887.75     887.25     0          0
8305             5040             5035             75.00      0.0150     890.36     887.75     0          0
8310             5045             5040             62.00      0.0170     892.76     891.76     0          0
8315             5050             5045             314.00     0          893.06     892.20     0          0
8320             5055             5050             31.40      0.0150     892.80     892.71     0          0
8325             5060             5055             464.00     0          898.49     892.71     0          0
8330             5065             5060             21.00      0.0150     899.21     898.49     0          0
8335             5070             5065             228.00     0          902.13     899.21     0          0
8340             5075             5070             30.00      0.0150     903.03     902.13     0          0
8345             5080             5075             241.00     0          905.33     903.03     0          0
8350             5085             5080             16.80      0.0150     905.53     905.33     0          0
8355             5086             5085             229.00     0          907.80     905.53     0          0
8356             5091             5086             307.00     0.0150     909.16     907.81     0          0
8360             5095             5091             604.50     0.0150     911.85     909.16     0          0
8365             5100             5095             137.50     0.0150     912.84     911.85     0          0
8370             5105             5100             325.00     0.0150     916.72     912.84     0          0
8375             5115             5105             626.10     0.0150     923.67     916.82     0          0
8385             5120             5115             163.40     0.0150     925.47     924.36     0          0
8390             5125             5120             331.00     0.0150     927.55     925.87     0          0
8395             5130             5125             300.00     0.0150     930.06     927.70     0          0
8400             5135             5130             34.50      0.0150     931.74     930.41     0          0
8401             5136             5135             178.00     0.0170     934.50     931.74     0          0
8405             5140             5100             175.80     0.0150     914.10     912.84     0          0
8410             5141             5140             37.00      0.0150     916.90     914.50     0          0
8411             5145             5141             161.40     0.0150     915.27     916.90     0          0
8415             5150             5145             99.80      0.0150     915.00     915.26     0          0
8420             5155             5150             258.80     0.0150     916.35     915.05     0          0
8425             5160             5155             205.40     0.0150     920.85     917.25     0          0
8430             5165             5160             149.70     0.0150     923.15     920.90     0          0
8435             5170             5165             40.00      0.0150     925.10     923.45     0          0
8440             5175             5170             137.90     0.0150     927.75     925.20     0          0
8441             5176             5175             479.00     0.0150     938.17     928.06     0          0
8442             5177             5176             298.00     0.0150     942.00     938.22     0          0
8443             5178             5177             87.00      0.0150     944.97     943.30     0          0
8445             5180             5040             309.00     0.0150     897.42     891.76     0          0
8450             5185             5050             54.80      0.0150     893.81     893.06     0          0
8455             5190             5185             311.30     0.0150     900.21     894.49     0          0
8460             5195             5190             206.30     0.0150     904.44     900.21     0          0
8465             5200             4970             310.00     0.0170     866.50     849.50     0          0
8470             5205             5200             535.00     0.0150     883.14     866.50     0          0
8475             5210             5205             229.00     0.0150     886.50     883.14     0          0
8480             5215             5210             768.00     0          897.77     886.50     0          0
8695             5780             5141             288.00     0.0170     921.60     916.90     0          0
8235             4970             4135             1292.00    0          849.50     848.15     0          0
88               88-E             5025             400.00     0.0150     888.45     884.45     0          0
96               96-E             5205             2200.00    0.0150     949.14     883.14     0          0
84               84-E             5195             2000.00    0.0150     984.44     904.44     0          0
64               64-E             5135             2000.00    0.0150     991.74     931.74     0          0
77               77-E             5141             600.00     0.0150     934.90     916.90     0          0
97               97-E             4135             1300.00    0.0150     874.15     848.15     0          0
92               92-E             4980             500.00     0.0150     870.82     860.82     0          0
81               81-E             5075             900.00     0.0150     939.03     903.03     0          0

[XSECTIONS]
;;Link           Shape        Geom1      Geom2      Geom3      Geom4      Barrels
;;-------------- ------------ ---------- ---------- ---------- ---------- ----------
CHME8240         IRREGULAR    0          0          0          0          1
8245             RECT_CLOSED  6.50       12.00      0          0          1
8246             RECT_CLOSED  7.50       14.00      0          0          1
8250             IRREGULAR    8.50       0          0          0          1
8255             CIRCULAR     5.50       0          0          0          2
8260             IRREGULAR    7.00       0          0          0          1
8265             RECT_CLOSED  7.50       7.50       0          0          1
8270             IRREGULAR    0          0          0          0          1
8275             CIRCULAR     6.00       0          0          0          1
8280             IRREGULAR    12.00      0          0          0          1
8285             CIRCULAR     5.50       0          0          0          1
8290             RECT_CLOSED  4.00       6.00       0          0          1
8291             RECT_CLOSED  4.00       6.00       0          0          1
8292             RECT_CLOSED  4.00       6.00       0          0          1
8293             RECT_CLOSED  4.00       6.00       0          0          1
8295             RECT_CLOSED  4.50       6.00       0          0          1
8305             HORSESHOE    6.20       5.00       0          0          1
8310             CIRCULAR     3.00       0          0          0          1
8315             IRREGULAR    7.00       0          0          0          1
8320             RECT_CLOSED  4.50       21.00      0          0          1
8325             IRREGULAR    7.40       0          0          0          1
8330             HORSESHOE    7.60       16.00      0          0          1
8335             IRREGULAR    7.00       0          0          0          1
8340             CIRCULAR     5.00       0          0          0          1
8345             IRREGULAR    6.30       0          0          0          1
8350             RECT_CLOSED  5.00       12.00      0          0          1
8355             IRREGULAR    6.00       0          0          0          1
8356             RECT_CLOSED  4.75       4.75       0          0          2
8360             RECT_CLOSED  4.75       4.75       0          0          2
8365             RECT_CLOSED  4.75       4.75       0          0          2
8370             CIRCULAR     4.50       0          0          0          1
8375             CIRCULAR     4.50       0          0          0          1
8385             CIRCULAR     4.00       0          0          0          1
8390             CIRCULAR     3.50       0          0          0          1
8395             CIRCULAR     3.50       0          0          0          1
8400             CIRCULAR     3.50       0          0          0          1
8401             CIRCULAR     3.00       0          0          0          1
8405             CIRCULAR     5.50       0          0          0          1
8410             CIRCULAR     3.00       0          0          0          1
8411             CIRCULAR     5.00       0          0          0          1
8415             CIRCULAR     5.00       0          0          0          1
8420             CIRCULAR     4.00       0          0          0          1
8425             CIRCULAR     4.00       0          0          0          1
8430             CIRCULAR     4.00       0          0          0          1
8435             CIRCULAR     3.50       0          0          0          1
8440             CIRCULAR     3.50       0          0          0          1
8441             CIRCULAR     3.50       0          0          0          1
8442             CIRCULAR     3.50       0          0          0          1
8443             CIRCULAR     3.00       0          0          0          1
8445             CIRCULAR     3.00       0          0          0          1
8450             CIRCULAR     3.00       0          0          0          1
8455             CIRCULAR     3.00       0          0          0          1
8460             CIRCULAR     3.00       0          0          0          1
8465             CIRCULAR     2.50       0          0          0          1
8470             CIRCULAR     3.50       0          0          0          1
8475             CIRCULAR     3.50       0          0          0          1
8480             IRREGULAR    4.50       0          0          0          1
8695             CIRCULAR     3.00       0          0          0          1
8235             IRREGULAR    9.50       0          0          0          1
88               CIRCULAR     3.00       0          0          0          1
96               CIRCULAR     3.00       0          0          0          1
84               CIRCULAR     3.00       0          0          0          1
64               CIRCULAR     3.50       0          0          0          1
77               CIRCULAR     3.00       0          0          0          1
97               CIRCULAR     4.50       0          0          0          1
92               CIRCULAR     3.00       0          0          0          1
81               CIRCULAR     3.00       0          0          0          1

[LOSSES]
;;Link           Inlet      Outlet     Average    Flap Gate
;;-------------- ---------- ---------- ---------- ----------
CHME8240         0          0          0          NO
8245             0          0          0          NO
8246             0          0          0          NO
8250             0          0          0          NO
8255             0          0          0          NO
8260             0          0          0          NO
8265             0          0          0          NO
8270             0          0          0          NO
8275             0          0          0          NO
8280             0          0          0          NO
8285             0          0          0          NO
8290             0          0          0          NO
8291             0          0          0          NO
8292             0          0          0          NO
8293             0          0          0          NO
8295             0          0          0          NO
8305             0          0          0          NO
8310             0          0          0          NO
8315             0          0          0          NO
8320             0          0          0          NO
8325             0          0          0          NO
8330             0          0          0          NO
8335             0          0          0          NO
8340             0          0          0          NO
8345             0          0          0          NO
8350             0          0          0          NO
8355             0          0          0          NO
8356             0          0          0          NO
8360             0          0          0          NO
8365             0          0          0          NO
8370             0          0          0          NO
8375             0          0          0          NO
8385             0          0          0          NO
8390             0          0          0          NO
8395             0          0          0          NO
8400             0          0          0          NO
8401             0          0          0          NO
8405             0          0          0          NO
8410             0          0          0          NO
8411             0          0          0          NO
8415             0          0          0          NO
8420             0          0          0          NO
8425             0          0          0          NO
8430             0          0          0          NO
8435             0          0          0          NO
8440             0          0          0          NO
8441             0          0          0          NO
8442             0          0          0          NO
8443             0          0          0          NO
8445             0          0          0          NO
8450             0          0          0          NO
8455             0          0          0          NO
8460             0          0          0          NO
8465             0          0          0          NO
8470             0          0          0          NO
8475             0          0          0          NO
8480             0          0          0          NO
8695             0          0          0          NO
8235             0          0          0          NO
88               0          0          0          NO
96               0          0          0          NO
84               0          0          0          NO
64               0          0          0          NO
77               0          0          0          NO
97               0          0          0          NO
92               0          0          0          NO
81               0          0          0          NO

[COORDINATES]
;;Node           X-Coord            Y-Coord
;;-------------- ------------------ ------------------
4135             -1035610.40        2769277.00        
4970             -1034236.80        2769378.10        
4975             -1034191.50        2769314.50        
4980             -1034126.60        2769245.40        
4995             -1033631.60        2769120.50        
5000             -1033575.40        2769114.00        
5010             -1033245.90        2769048.20        
5025             -1032378.40        2769018.60        
5040             -1031912.70        2768919.80        
5050             -1031730.00        2768590.90        
5055             -1031699.70        2768521.90        
5065             -1031215.70        2768405.30        
5075             -1031042.90        2768198.00        
5086             -1030714.60        2767925.00        
5095             -1030466.00        2767624.00        
5105             -1030063.60        2767455.20        
5115             -1029405.80        2767432.60        
5120             -1029402.50        2767271.70        
5125             -1029066.60        2767253.80        
5135             -1028744.81        2767210.06        
5136             -1028764.80        2767029.80        
5140             -1030418.50        2767306.70        
5141             -1030420.20        2767269.00        
5150             -1030415.70        2767019.30        
5155             -1030387.60        2766758.10        
5165             -1030132.90        2766488.60        
5175             -1030018.40        2766393.60        
5176             -1029779.20        2765999.80        
5177             -1029486.70        2765939.10        
5178             -1029409.50        2765979.60        
5180             -1031655.40        2769087.70        
5195             -1031220.90        2768695.70        
5205             -1033792.30        2770058.70        
5215             -1033252.40        2770723.70        
5780             -1030703.00        2767291.70        
4976             -1034158.70        2769279.30        
4985             -1033860.60        2769152.90        
4990             -1033804.40        2769135.60        
5005             -1033350.80        2769087.90        
5015             -1033119.40        2769031.50        
5020             -1032735.40        2769109.80        
5026             -1032275.90        2769012.40        
5027             -1032186.00        2768981.50        
5030             -1032083.20        2768946.10        
5035             -1031992.10        2768906.20        
5045             -1031878.20        2768868.20        
5060             -1031271.90        2768422.60        
5070             -1031064.50        2768258.50        
5080             -1030894.90        2768016.70        
5085             -1030834.40        2768013.40        
5091             -1030673.90        2767771.20        
5100             -1030468.70        2767468.10        
5130             -1028772.30        2767248.10        
5145             -1030408.20        2767130.50        
5160             -1030236.60        2766557.70        
5170             -1030096.10        2766447.60        
5185             -1031636.90        2768588.10        
5190             -1031382.40        2768672.70        
5200             -1034171.70        2769681.10        
5210             -1033685.10        2770214.40        
88-E             -1032583.21        2768523.55        
96-E             -1033261.06        2769878.49        
84-E             -1030800.40        2769023.96        
64-E             -1028986.51        2767781.43        
77-E             -1030029.70        2767060.83        
97-E             -1035058.50        2769925.31        
92-E             -1034584.94        2768516.48        
81-E             -1031618.22        2767638.85        

[MAP]
DIMENSIONS -1035610.40 2765939.10 -1028744.81 2770723.70
Units      None

[REPORT]
INPUT            YES
SUBCATCHMENTS    ALL
NODES            ALL
LINKS            ALL



