;; SWMM5 .inp converted from XPSWMM .xp file
;; Generated by XPSWMM Card Reader
;; Source format: XP_CARD | Original title: City of Topeka Comprehensive Stormwater Study

[TITLE]
;;Project Title/Notes
City of Topeka Comprehensive Stormwater Study

[OPTIONS]
FLOW_UNITS           CFS
INFILTRATION         HORTON
FLOW_ROUTING         DYNWAVE
LINK_OFFSETS         DEPTH
MIN_SLOPE            0.0
ALLOW_PONDING        NO
SKIP_STEADY_STATE    NO
ROUTING_STEP         00:00:15
VARIABLE_STEP        0.75
INERTIAL_DAMPING     PARTIAL
NORMAL_FLOW_LIMITED  BOTH
MAX_TRIALS           50
HEAD_TOLERANCE       0.0033

[JUNCTIONS]
;;Name           Elev       MaxDepth   InitDepth  SurDepth   Aponded
;;-------------- ---------- ---------- ---------- ---------- ----------
31430057         0          0          0          0          0
31430060         0          0          0          0          0
31430059         0          0          0          0          0
31430058         0          0          0          0          0
31440025         0          0          0          0          0
31440034         0          0          0          0          0
31440028         0          0          0          0          0
31440030         0          0          0          0          0
31440023         0          0          0          0          0
31440026         0          0          0          0          0
31440033         0          0          0          0          0
31440027         0          0          0          0          0
31440022         0          0          0          0          0
31440007         0          0          0          0          0
31430028         0          0          0          0          0
31430040         0          0          0          0          0
31430062         0          0          0          0          0
31430061         0          0          0          0          0
31410113         0          0          0          0          0
31410063         0          0          0          0          0
31410112         0          0          0          0          0
31410056         0          0          0          0          0
31410114         0          0          0          0          0
31410115         0          0          0          0          0
31410042         0          0          0          0          0
31410043         0          0          0          0          0
31410044         983.99     0          0          0          0
31410045         982.17     0          0          0          0
31410047         0          0          0          0          0
31410048         981.42     0          0          0          0
31410032         0          0          0          0          0
31410028         0          0          0          0          0
31410034         992.53     0          0          0          0
31410033         0          0          0          0          0
31410029         994.01     0          0          0          0
31410031         0          0          0          0          0
31410057         980.00     0          0          0          0
31410087         0          0          0          0          0
31410091         0          0          0          0          0
31410093         0          0          0          0          0
31410102         0          0          0          0          0
31410101         0          0          0          0          0
31410103         0          0          0          0          0
31410104         0          0          0          0          0
31410107         0          0          0          0          0
31410109         0          0          0          0          0
31410004         0          0          0          0          0
31410111         0          0          0          0          0
31410110         0          0          0          0          0
31410003         0          0          0          0          0
31410041         0          0          0          0          0
31410072         0          0          0          0          0
31440013         0          0          0          0          0
31440035         0          0          0          0          0
31920035         0          0          0          0          0
31920003         0          0          0          0          0
31920004         994.87     0          0          0          0
31920007         994.22     0          0          0          0
31920008         995.00     0          0          0          0
31920019         965.00     0          0          0          0
31920020         961.40     0          0          0          0
31920021         961.36     0          0          0          0
31920022         961.00     0          0          0          0
31920025         0          0          0          0          0
31920024         0          0          0          0          0
31920023         0          0          0          0          0
31920026         0          0          0          0          0
31930041         998.88     0          0          0          0
31930043         985.81     0          0          0          0
31930045         985.12     0          0          0          0
31930044         985.06     0          0          0          0
32020006         985.38     0          0          0          0
32020008         0          0          0          0          0
31930046         988.23     0          0          0          0
32020018         0          0          0          0          0
32020022         0          0          0          0          0
31930048         1000.79    0          0          0          0
31930058         0          0          0          0          0
31930050         1023.54    0          0          0          0
31930052         1029.64    0          0          0          0
31920033         0          0          0          0          0
31930027         0          0          0          0          0
31930025         0          0          0          0          0
31930026         0          0          0          0          0
31930024         0          0          0          0          0
31930023         0          0          0          0          0
31930021         0          0          0          0          0
31930020         0          0          0          0          0
31930019         0          0          0          0          0
31930018         0          0          0          0          0
31930017         0          0          0          0          0
31930016         0          0          0          0          0
31930003         0          0          0          0          0
31930002         0          0          0          0          0
31930001         0          0          0          0          0
31930004         0          0          0          0          0
31930005         0          0          0          0          0
30830059         978.34     0          0          0          0
30830073         968.59     0          0          0          0
30830074         963.16     0          0          0          0
30830075         960.96     0          0          0          0
30830076         960.00     0          0          0          0
30830077         962.38     0          0          0          0
30830083         964.70     0          0          0          0
30830046         0          0          0          0          0
30830044         0          0          0          0          0
30830042         0          0          0          0          0
30830043         0          0          0          0          0
30830098         0          0          0          0          0
30830027         0          0          0          0          0
30830029         0          0          0          0          0
30830030         0          0          0          0          0
30830099         0          0          0          0          0
30830048         0          0          0          0          0
30830045         0          0          0          0          0
30820032         965.56     0          0          0          0
30820027         967.29     0          0          0          0
30820028         966.97     0          0          0          0
30820003         962.64     0          0          0          0
30820004         962.42     0          0          0          0
30820010         961.20     0          0          0          0
30820054         957.03     0          0          0          0
30820049         948.97     0          0          0          0
30820051         950.00     0          0          0          0
30710023         898.49     0          0          0          0
30710021         895.74     0          0          0          0
30710019         893.04     0          0          0          0
30710017         888.60     0          0          0          0
30710016         0          0          0          0          0
30710014         891.48     0          0          0          0
30710009         901.41     0          0          0          0
30710008         908.49     0          0          0          0
30710006         924.55     0          0          0          0
30710004         930.06     0          0          0          0
31410067         0          0          0          0          0
31410065         0          0          0          0          0
31410062         0          0          0          0          0
30719026         890.00     0          0          0          0
30718026         890.00     0          0          0          0
30830058         0          0          0          0          0
30830086         0          0          0          0          0
30710003         0          0          0          0          0
30710028         0          0          0          0          0
30820030         0          0          0          0          0
30820029         0          0          0          0          0
30820034         0          0          0          0          0
30820033         0          0          0          0          0

[CONDUITS]
;;Name           From             To               Length     Roughness  InOffset   OutOffset  InitFlow   MaxFlow
;;-------------- ---------------- ---------------- ---------- ---------- ---------- ---------- ---------- ----------
30821049         30820049         30820051         628.00     0.0190     942.57     928.68     0          0
30821054         30820054         30820049         406.00     0.0190     951.58     942.67     0          0
30821010         30820010         30820054         122.00     0.0190     955.80     951.53     0          0
30821004         30820004         30820010         38.00      0.0190     957.27     955.85     0          0
30821003         30820003         30820010         39.00      0.0150     956.54     956.20     0          0
30821027         30820027         30820003         302.00     0.0150     958.39     956.59     0          0
30821032         30820032         30820027         340.00     0.0150     960.06     958.69     0          0
30829032         30820032         30820028         347.00     0.0180     961.46     960.22     0          0
30821028         30820028         30820004         290.00     0.0180     960.07     957.42     0          0
30711004         30710004         30710006         316.00     0.0150     921.76     915.20     0          0
30711006         30710006         30710008         327.00     0.0150     914.90     901.54     0          0
30711008         30710008         30710009         142.00     0.0150     901.24     892.86     0          0
30711009         30710009         30710014         198.00     0.0150     892.31     880.18     0          0
30711014         30710014         30710017         250.00     0.0150     880.18     877.05     0          0
30711023         30710023         30710021         223.00     0.0150     890.64     888.22     0          0
30711021         30710021         30710019         250.00     0.0150     888.09     884.84     0          0
30831059         30830059         30830073         285.00     0.0200     973.44     963.64     0          0
30831073         30830073         30830074         184.00     0.0200     963.09     957.81     0          0
30831074         30830074         30830075         158.00     0.0210     957.76     955.46     0          0
30831083         30830083         30830077         134.00     0.0190     958.55     957.75     0          0
30831077         30830077         30830075         131.00     0.0190     957.75     955.91     0          0
30831075         30830075         30830076         23.00      0.0220     955.26     955.22     0          0
30711017         30710017         30719026         130.00     0.0150     877.05     876.30     0          0
30711019         30710019         30718026         250.00     0.0150     884.64     880.94     0          0
31411029         31410029         31410034         108.00     0.0150     988.18     986.83     0          0
31411034         31410034         31410044         661.00     0.0150     985.73     977.92     0          0
31411044         31410044         31410045         127.00     0.0150     977.42     975.97     0          0
31411045         31410045         31410048         56.00      0.0150     975.97     975.46     0          0
31411048         31410048         31410057         315.00     0.0150     975.12     970.64     0          0
31921004         31920004         31920007         36.00      0.0150     987.87     987.37     0          0
31921007         31920007         31920008         28.00      0.0150     987.12     986.94     0          0
31921019         31920019         31920020         32.00      0.0150     956.02     955.67     0          0
31921020         31920020         31920021         30.00      0.0150     955.30     955.01     0          0
31921021         31920021         31920022         29.00      0.0150     954.31     954.30     0          0
31931041         31930041         31930043         330.00     0.0150     992.22     978.51     0          0
31931043         31930043         31930044         155.00     0.0150     978.41     976.56     0          0
32021006         32020006         31930044         12.00      0.0270     975.98     976.41     0          0
31931044         31930044         31930045         38.00      0.0270     976.31     976.02     0          0
31931052         31930052         31930050         202.00     0.0150     1024.54    1018.67    0          0
31931050         31930050         31930048         419.00     0.0150     1018.64    995.50     0          0
31931048         31930048         31930046         278.00     0.0150     995.54     982.13     0          0
31931046         31930046         31930044         343.00     0.0150     982.03     976.46     0          0
31921008         31920008         31920019         855.00     0          986.94     956.02     0          0

[XSECTIONS]
;;Link           Shape        Geom1      Geom2      Geom3      Geom4      Barrels
;;-------------- ------------ ---------- ---------- ---------- ---------- ----------
30821049         CIRCULAR     3.00       0          0          0          1
30821054         CIRCULAR     3.00       0          0          0          1
30821010         CIRCULAR     3.00       0          0          0          1
30821004         CIRCULAR     3.00       0          0          0          1
30821003         HORSESHOE    2.67       0          0          0          1
30821027         CIRCULAR     3.50       0          0          0          1
30821032         CIRCULAR     3.50       0          0          0          1
30829032         CIRCULAR     2.50       0          0          0          1
30821028         CIRCULAR     2.50       0          0          0          1
30711004         CIRCULAR     2.50       0          0          0          1
30711006         CIRCULAR     2.50       0          0          0          1
30711008         CIRCULAR     2.50       0          0          0          1
30711009         CIRCULAR     2.50       0          0          0          1
30711014         CIRCULAR     3.50       0          0          0          1
30711023         CIRCULAR     3.50       0          0          0          1
30711021         CIRCULAR     3.50       0          0          0          1
30831059         CIRCULAR     3.00       0          0          0          1
30831073         CIRCULAR     3.00       0          0          0          1
30831074         CIRCULAR     3.50       0          0          0          1
30831083         CIRCULAR     2.50       0          0          0          1
30831077         CIRCULAR     2.50       0          0          0          1
30831075         CIRCULAR     4.00       0          0          0          1
30711017         CIRCULAR     3.50       0          0          0          1
30711019         CIRCULAR     3.50       0          0          0          1
31411029         CIRCULAR     3.00       0          0          0          1
31411034         CIRCULAR     3.50       0          0          0          1
31411044         CIRCULAR     4.00       0          0          0          1
31411045         CIRCULAR     4.00       0          0          0          1
31411048         CIRCULAR     4.50       0          0          0          1
31921004         CIRCULAR     3.00       0          0          0          1
31921007         CIRCULAR     3.50       0          0          0          1
31921019         CIRCULAR     3.50       0          0          0          1
31921020         CIRCULAR     4.00       0          0          0          1
31921021         CIRCULAR     4.50       0          0          0          1
31931041         CIRCULAR     2.50       0          0          0          1
31931043         CIRCULAR     3.00       0          0          0          1
32021006         HORSESHOE    6.00       5.00       0          0          1
31931044         HORSESHOE    6.00       5.00       0          0          1
31931052         CIRCULAR     2.00       0          0          0          1
31931050         CIRCULAR     2.50       0          0          0          1
31931048         CIRCULAR     2.50       0          0          0          1
31931046         CIRCULAR     2.50       0          0          0          1
31921008         IRREGULAR    3.50       0          0          0          1

[LOSSES]
;;Link           Inlet      Outlet     Average    Flap Gate
;;-------------- ---------- ---------- ---------- ----------
30821049         0          0          0          NO
30821054         0          0          0          NO
30821010         0          0          0          NO
30821004         0          0          0          NO
30821003         0          0          0          NO
30821027         0          0          0          NO
30821032         0          0          0          NO
30829032         0          0          0          NO
30821028         0          0          0          NO
30711004         0          0          0          NO
30711006         0          0          0          NO
30711008         0          0          0          NO
30711009         0          0          0          NO
30711014         0          0          0          NO
30711023         0          0          0          NO
30711021         0          0          0          NO
30831059         0          0          0          NO
30831073         0          0          0          NO
30831074         0          0          0          NO
30831083         0          0          0          NO
30831077         0          0          0          NO
30831075         0          0          0          NO
30711017         0          0          0          NO
30711019         0          0          0          NO
31411029         0          0          0          NO
31411034         0          0          0          NO
31411044         0          0          0          NO
31411045         0          0          0          NO
31411048         0          0          0          NO
31921004         0          0          0          NO
31921007         0          0          0          NO
31921019         0          0          0          NO
31921020         0          0          0          NO
31921021         0          0          0          NO
31931041         0          0          0          NO
31931043         0          0          0          NO
32021006         0          0          0          NO
31931044         0          0          0          NO
31931052         0          0          0          NO
31931050         0          0          0          NO
31931048         0          0          0          NO
31931046         0          0          0          NO
31921008         0          0          0          NO

[COORDINATES]
;;Node           X-Coord            Y-Coord
;;-------------- ------------------ ------------------
31430057         -251410.67         1976978.36        
31430060         -251181.48         1976985.61        
31430059         -251126.09         1976797.86        
31430058         -251117.08         1976397.28        
31440025         -251162.25         1977008.15        
31440034         -251132.58         1977057.05        
31440028         -251143.94         1977447.79        
31440030         -251148.37         1977598.95        
31440023         -251166.92         1978238.69        
31440026         -251173.33         1978425.75        
31440033         -251173.88         1978488.05        
31440027         -251183.93         1978822.10        
31440022         -251143.34         1978198.58        
31440007         -251565.61         1978065.19        
31430028         -253789.20         1976917.76        
31430040         -253746.85         1976914.54        
31430062         -253725.98         1976898.20        
31430061         -253747.06         1976952.41        
31410113         -253787.56         1976952.40        
31410063         -253812.55         1976953.21        
31410112         -253808.99         1977041.56        
31410056         -254230.66         1976944.92        
31410114         -254230.45         1976912.57        
31410115         -254505.11         1976905.62        
31410042         -254505.38         1976937.81        
31410043         -254478.25         1976955.42        
31410044         -254493.95         1977095.75        
31410045         -254495.14         1977223.05        
31410047         -254498.17         1977247.14        
31410048         -254445.84         1977247.89        
31410032         -255143.72         1976908.59        
31410028         -255155.26         1977060.03        
31410034         -255156.41         1977075.88        
31410033         -255112.11         1977058.67        
31410029         -255150.53         1977182.54        
31410031         -255154.29         1977255.50        
31410057         -254136.95         1977306.73        
31410087         -255877.10         1979020.73        
31410091         -255808.04         1978952.75        
31410093         -255734.51         1978894.19        
31410102         -255531.75         1978862.60        
31410101         -255531.54         1978854.47        
31410103         -255523.69         1978845.59        
31410104         -255494.67         1978843.22        
31410107         -255448.34         1978843.19        
31410109         -255319.86         1978853.06        
31410004         -255194.79         1978852.65        
31410111         -255185.49         1978716.77        
31410110         -255184.35         1978647.04        
31410003         -255135.84         1978646.39        
31410041         -254799.24         1978633.25        
31410072         -253859.40         1979197.60        
31440013         -253555.32         1979235.62        
31440035         -253462.21         1979568.87        
31920035         -255836.39         1979739.86        
31920003         -255708.39         1979902.26        
31920004         -255710.98         1980020.90        
31920007         -255682.21         1980042.23        
31920008         -255654.19         1980043.06        
31920019         -254866.80         1980381.22        
31920020         -254842.29         1980401.38        
31920021         -254819.22         1980419.54        
31920022         -254797.05         1980438.64        
31920025         -254741.88         1980329.36        
31920024         -254764.86         1980310.33        
31920023         -254765.59         1980274.31        
31920026         -254747.72         1980250.04        
31930041         -251207.69         1979665.65        
31930043         -251218.60         1979995.00        
31930045         -251261.48         1980149.04        
31930044         -251223.52         1980150.67        
32020006         -251211.21         1980150.59        
32020008         -251189.23         1980285.52        
31930046         -251233.90         1980493.32        
32020018         -251201.06         1980666.81        
32020022         -251108.77         1980668.96        
31930048         -251242.58         1980772.34        
31930058         -251243.18         1980795.98        
31930050         -251255.52         1981193.90        
31930052         -251261.74         1981395.75        
31920033         -252077.79         1980378.91        
31930027         -251881.39         1981177.83        
31930025         -251911.01         1981186.52        
31930026         -251931.98         1981241.06        
31930024         -252042.50         1981246.41        
31930023         -252145.10         1981205.53        
31930021         -252219.77         1981188.57        
31930020         -252320.39         1981183.54        
31930019         -252426.17         1981141.42        
31930018         -252501.34         1981124.23        
31930017         -252761.47         1981110.21        
31930016         -252964.54         1981265.09        
31930003         -253228.79         1981808.42        
31930002         -253292.84         1981833.58        
31930001         -253334.18         1981785.67        
31930004         -253288.76         1981894.56        
31930005         -253269.01         1981919.53        
30830059         -257265.80         1980735.01        
30830073         -257272.85         1981018.76        
30830074         -257277.47         1981199.93        
30830075         -257281.53         1981358.04        
30830076         -257303.90         1981360.24        
30830077         -257287.38         1981486.36        
30830083         -257270.31         1981621.81        
30830046         -258739.70         1981614.43        
30830044         -258909.70         1981622.78        
30830042         -258965.48         1981626.56        
30830043         -258966.06         1981667.92        
30830098         -258929.13         1981894.58        
30830027         -259178.08         1981683.09        
30830029         -259187.29         1982092.94        
30830030         -259162.59         1982144.75        
30830099         -258894.71         1982066.00        
30830048         -258872.82         1982123.40        
30830045         -258860.62         1982146.30        
30820032         -260541.09         1980134.65        
30820027         -260884.89         1980123.60        
30820028         -260888.81         1980133.34        
30820003         -261161.39         1980237.47        
30820004         -261155.85         1980245.33        
30820010         -261184.32         1980269.95        
30820054         -261279.19         1980346.90        
30820049         -261467.45         1980704.84        
30820051         -261483.37         1981331.65        
30710023         -264578.50         1984705.80        
30710021         -264574.66         1984482.70        
30710019         -264570.01         1984232.75        
30710017         -264564.43         1983852.55        
30710016         -264562.43         1983742.94        
30710014         -264559.05         1983601.95        
30710009         -264554.88         1983403.76        
30710008         -264552.00         1983261.34        
30710006         -264545.89         1982933.15        
30710004         -264540.93         1982618.18        
31410067         -254482.74         1978888.16        
31410065         -254512.00         1978783.57        
31410062         -254548.42         1978640.64        
30719026         -264574.90         1983983.29        
30718026         -264543.68         1983983.29        
30830058         -257258.70         1980449.78        
30830086         -257052.24         1981747.36        
30710003         -264540.56         1982592.46        
30710028         -264492.47         1982616.06        
30820030         -260545.73         1980113.82        
30820029         -260530.59         1980113.95        
30820034         -260531.59         1980145.58        
30820033         -260546.62         1980145.81        

[MAP]
DIMENSIONS -264578.50 1976397.28 -251108.77 1984705.80
Units      None

[REPORT]
INPUT            YES
SUBCATCHMENTS    ALL
NODES            ALL
LINKS            ALL



