;; SWMM5 .inp converted from XPSWMM .xp file
;; Generated by XPSWMM Card Reader
;; Source format: XP_CARD | Original title: RANGIORA SEWER NETWORK ANALYSIS STAGE III

[TITLE]
;;Project Title/Notes
RANGIORA SEWER NETWORK ANALYSIS STAGE III

[OPTIONS]
FLOW_UNITS           CMS
INFILTRATION         HORTON
FLOW_ROUTING         DYNWAVE
LINK_OFFSETS         DEPTH
MIN_SLOPE            0.0
ALLOW_PONDING        NO
SKIP_STEADY_STATE    NO
ROUTING_STEP         00:00:30
VARIABLE_STEP        0.75
INERTIAL_DAMPING     PARTIAL
NORMAL_FLOW_LIMITED  BOTH
MAX_TRIALS           50
HEAD_TOLERANCE       .001

[JUNCTIONS]
;;Name           Elev       MaxDepth   InitDepth  SurDepth   Aponded
;;-------------- ---------- ---------- ---------- ---------- ----------
203              34.21      0          0          0          0
205              33.55      0          0          0          0
207              32.87      0          0          0          0
209              31.71      0          0          0          0
211              30.97      0          0          0          0
213              30.63      0          0          0          0
215              27.67      0          0          0          0
217              27.15      0          0          0          0
219              25.80      0          0          0          0
221              24.32      0          0          0          0
223              24.16      0          0          0          0
225              21.91      0          0          0          0
227              21.60      0          0          0          0
229              20.00      0          0          0          0
231              20.58      0          0          0          0
233              19.72      0          0          0          0
235              19.13      0          0          0          0
237              18.74      0          0          0          0
239              18.50      0          0          0          0
242              18.25      0          0          0          0
244              18.00      0          0          0          0
246              17.52      0          0          0          0
248              17.05      0          0          0          0
250              19.69      0          0          0          0
251              18.89      0          0          0          0
253              18.61      0          0          0          0
258              20.98      0          0          0          0
283              19.50      0          0          0          0
285              19.53      0          0          0          0
287              20.31      0          0          0          0
290              29.02      0          0          0          0
291              28.36      0          0          0          0
293              27.51      0          0          0          0
296              22.56      0          0          0          0
298              22.03      0          0          0          0
301              26.80      0          0          0          0
303              26.50      0          0          0          0
305              26.06      0          0          0          0
307              25.65      0          0          0          0
309              24.88      0          0          0          0
311              24.45      0          0          0          0
313              23.82      0          0          0          0
315              23.55      0          0          0          0
319              22.76      0          0          0          0
322              32.60      0          0          0          0
324              32.26      0          0          0          0
326              32.10      0          0          0          0
328              31.26      0          0          0          0
330              30.58      0          0          0          0
332              30.20      0          0          0          0
334              29.81      0          0          0          0
336              29.27      0          0          0          0
338              29.10      0          0          0          0
340              23.86      0          0          0          0
342              23.45      0          0          0          0
345              23.14      0          0          0          0
349              22.50      0          0          0          0
351              21.04      0          0          0          0
354              33.40      0          0          0          0
355              33.05      0          0          0          0
357              32.00      0          0          0          0
359              31.77      0          0          0          0
361              30.98      0          0          0          0
363              30.70      0          0          0          0
365              30.34      0          0          0          0
368              35.62      0          0          0          0
369              35.28      0          0          0          0
371              35.14      0          0          0          0
373              34.53      0          0          0          0
375              34.24      0          0          0          0
378              34.81      0          0          0          0
379              34.12      0          0          0          0
382              34.24      0          0          0          0
383              34.07      0          0          0          0
385              32.62      0          0          0          0
387              32.30      0          0          0          0
390              32.77      0          0          0          0
392              30.97      0          0          0          0
394              30.20      0          0          0          0
396              26.25      0          0          0          0
426              36.05      0          0          0          0
428              35.84      0          0          0          0
432              34.98      0          0          0          0
436              34.81      0          0          0          0
444              35.15      0          0          0          0
446              34.70      0          0          0          0
473              32.44      0          0          0          0
474              31.00      0          0          0          0
476              30.42      0          0          0          0
481              34.78      0          0          0          0
482              34.64      0          0          0          0
486              34.49      0          0          0          0
491              32.65      0          0          0          0
493              32.00      0          0          0          0
495              31.35      0          0          0          0
497              31.40      0          0          0          0
498              31.12      0          0          0          0
501              30.03      0          0          0          0
502              29.75      0          0          0          0
504              25.88      0          0          0          0
508              26.10      0          0          0          0
511              28.85      0          0          0          0
512              26.24      0          0          0          0
515              26.47      0          0          0          0
517              30.82      0          0          0          0
518              29.46      0          0          0          0
539              29.86      0          0          0          0
540              27.00      0          0          0          0
543              29.04      0          0          0          0
545              28.37      0          0          0          0
547              28.40      0          0          0          0
548              27.85      0          0          0          0
551              28.50      0          0          0          0
553              28.63      0          0          0          0
555              29.15      0          0          0          0
557              31.40      0          0          0          0
558              31.20      0          0          0          0
561              31.18      0          0          0          0
562              32.36      0          0          0          0
564              33.87      0          0          0          0
567              33.80      0          0          0          0
569              26.18      0          0          0          0
570              25.30      0          0          0          0
576              25.75      0          0          0          0
580              24.59      0          0          0          0
584              24.75      0          0          0          0
585              23.15      0          0          0          0
587              23.08      0          0          0          0
593              22.88      0          0          0          0
596              23.09      0          0          0          0
599              22.80      0          0          0          0
601              22.42      0          0          0          0
603              20.88      0          0          0          0
605              20.15      0          0          0          0
608              22.25      0          0          0          0
613              21.67      0          0          0          0
615              21.00      0          0          0          0
617              20.15      0          0          0          0
620              22.97      0          0          0          0
623              24.79      0          0          0          0
625              24.16      0          0          0          0
627              23.64      0          0          0          0
629              23.65      0          0          0          0
631              24.46      0          0          0          0
633              23.12      0          0          0          0
635              22.50      0          0          0          0
639              23.21      0          0          0          0
643              22.70      0          0          0          0
647              24.15      0          0          0          0
652              24.82      0          0          0          0
655              22.36      0          0          0          0
658              16.40      0          0          0          0
660              16.20      0          0          0          0
670              31.23      0          0          0          0
673              23.44      0          0          0          0
679              38.80      0          0          0          0
684              20.23      0          0          0          0
686              20.44      0          0          0          0
692              32.80      0          0          0          0
694              31.50      0          0          0          0
700              21.00      0          0          0          0
710              37.00      0          0          0          0
711              30.64      0          0          0          0
713              29.22      0          0          0          0
715              29.11      0          0          0          0
717              27.14      0          0          0          0
722              19.00      0          0          0          0
725              35.96      0          0          0          0
726              34.40      0          0          0          0
727              33.22      0          0          0          0
731              18.00      0          0          0          0
735              25.39      0          0          0          0

[CONDUITS]
;;Name           From             To               Length     Roughness  InOffset   OutOffset  InitFlow   MaxFlow
;;-------------- ---------------- ---------------- ---------- ---------- ---------- ---------- ---------- ----------
206              ?                ?                176.00     0.0182     32.78      32.23      0          0
208              ?                ?                105.00     0.0182     32.23      31.48      0          0
210              ?                ?                130.00     0.0173     31.48      30.49      0          0
212              ?                ?                119.00     0.0173     30.49      29.65      0          0
214              ?                ?                80.00      0.0173     29.65      29.02      0          0
216              ?                ?                320.00     0.0173     29.02      26.58      0          0
218              ?                ?                106.00     0.0173     26.58      25.65      0          0
220              ?                ?                330.00     0.0173     25.65      24.09      0          0
224              ?                ?                47.00      0.0182     22.96      22.72      0          0
228              ?                ?                77.00      0.0173     19.59      19.35      0          0
232              ?                ?                214.00     0.0182     18.57      17.91      0          0
236              ?                ?                114.00     0.0140     17.37      17.05      0          0
238              ?                ?                109.00     0.0182     17.05      16.45      0          0
240              ?                ?                285.00     0.0137     16.45      16.10      0          0
243              ?                ?                20.00      0.0137     16.10      16.04      0          0
245              ?                ?                74.00      0.0137     16.04      15.95      0          0
247              ?                ?                76.00      0.0137     15.95      15.87      0          0
249              ?                ?                95.00      0.0137     15.87      15.76      0          0
252              ?                ?                205.00     0.0182     17.69      17.08      0          0
254              ?                ?                105.00     0.0182     17.08      16.77      0          0
255              ?                ?                185.00     0.0182     16.77      15.95      0          0
259              ?                ?                125.00     0.0182     18.98      18.57      0          0
286              ?                ?                134.00     0.0162     17.79      16.99      0          0
288              ?                ?                142.00     0.0173     18.28      17.79      0          0
289              ?                ?                282.00     0.0173     19.35      18.28      0          0
292              ?                ?                89.00      0.0182     27.05      26.58      0          0
294              ?                ?                117.00     0.0173     26.58      25.97      0          0
295              ?                ?                75.00      0.0173     25.97      25.65      0          0
297              ?                ?                555.00     0.0173     24.09      21.32      0          0
299              ?                ?                96.00      0.0162     21.32      20.93      0          0
300              ?                ?                205.00     0.0162     20.93      20.00      0          0
304              ?                ?                125.00     0.0182     25.93      25.35      0          0
306              ?                ?                150.00     0.0173     25.35      24.82      0          0
308              ?                ?                75.00      0.0173     24.82      24.45      0          0
310              ?                ?                150.00     0.0173     24.45      23.49      0          0
312              ?                ?                67.00      0.0173     23.49      23.32      0          0
314              ?                ?                93.00      0.0173     23.32      22.72      0          0
316              ?                ?                74.00      0.0162     22.72      22.48      0          0
321              ?                ?                70.00      0.0162     21.69      21.32      0          0
323              ?                ?                195.00     0.0140     32.38      31.38      0          0
325              ?                ?                177.00     0.0140     31.38      30.64      0          0
327              ?                ?                90.00      0.0140     30.64      30.28      0          0
329              ?                ?                136.00     0.0140     30.28      29.65      0          0
333              ?                ?                154.00     0.0182     29.18      28.67      0          0
335              ?                ?                115.00     0.0182     28.67      27.97      0          0
337              ?                ?                59.00      0.0173     27.97      27.77      0          0
339              ?                ?                189.00     0.0173     27.77      27.11      0          0
341              ?                ?                426.00     0.0182     27.11      23.02      0          0
343              ?                ?                122.00     0.0182     23.15      21.94      0          0
344              ?                ?                80.00      0.0182     21.94      21.69      0          0
352              ?                ?                213.00     0.0173     21.32      20.38      0          0
353              ?                ?                70.00      0.0173     20.38      20.10      0          0
356              ?                ?                140.00     0.0182     32.13      31.41      0          0
358              ?                ?                156.00     0.0182     31.41      30.89      0          0
360              ?                ?                107.00     0.0173     30.89      30.39      0          0
362              ?                ?                210.00     0.0182     30.39      29.63      0          0
364              ?                ?                92.00      0.0173     29.41      29.08      0          0
366              ?                ?                106.00     0.0173     29.08      28.66      0          0
367              ?                ?                152.00     0.0173     28.66      27.97      0          0
370              ?                ?                115.00     0.0140     34.63      34.11      0          0
372              ?                ?                102.00     0.0140     34.11      33.66      0          0
374              ?                ?                99.00      0.0140     33.66      33.30      0          0
376              ?                ?                102.00     0.0182     33.30      32.96      0          0
377              ?                ?                40.00      0.0182     32.96      32.78      0          0
380              ?                ?                148.00     0.0182     33.61      32.92      0          0
381              ?                ?                143.00     0.0182     32.92      32.00      0          0
384              ?                ?                106.00     0.0140     33.07      32.75      0          0
386              ?                ?                210.00     0.0140     32.75      31.84      0          0
388              ?                ?                125.00     0.0140     31.84      31.49      0          0
389              ?                ?                129.00     0.0140     31.49      30.83      0          0
391              ?                ?                412.00     0.0140     31.37      29.65      0          0
395              ?                ?                147.00     0.0140     29.55      28.90      0          0
397              ?                ?                418.00     0.0140     28.90      25.38      0          0
398              ?                ?                138.00     0.0182     25.38      24.45      0          0
429              ?                ?                120.00     0.0182     35.13      34.64      0          0
430              ?                ?                195.00     0.0182     34.64      33.30      0          0
434              ?                ?                198.00     0.0182     34.15      32.96      0          0
435              ?                ?                103.00     0.0182     34.64      34.15      0          0
437              ?                ?                110.00     0.0182     34.23      33.57      0          0
440              ?                ?                308.00     0.0182     33.57      32.13      0          0
447              ?                ?                167.00     0.0182     33.85      33.50      0          0
448              ?                ?                325.00     0.0182     33.50      31.41      0          0
475              ?                ?                365.00     0.0140     31.26      29.79      0          0
477              ?                ?                110.00     0.0182     29.79      29.22      0          0
478              ?                ?                40.00      0.0182     29.22      29.08      0          0
483              ?                ?                103.00     0.0182     34.12      33.83      0          0
484              ?                ?                103.00     0.0182     33.83      33.61      0          0
488              ?                ?                245.00     0.0182     33.80      32.37      0          0
492              ?                ?                133.00     0.0140     31.78      31.04      0          0
494              ?                ?                90.00      0.0140     30.38      30.28      0          0
496              ?                ?                143.00     0.0140     30.15      29.65      0          0
499              ?                ?                98.00      0.0140     30.43      29.70      0          0
500              ?                ?                70.00      0.0182     29.70      29.18      0          0
503              ?                ?                135.00     0.0182     28.74      28.17      0          0
505              ?                ?                393.00     0.0182     28.17      24.53      0          0
506              ?                ?                195.00     0.0182     24.53      22.72      0          0
510              ?                ?                163.00     0.0182     24.90      23.59      0          0
513              ?                ?                293.00     0.0140     27.64      25.04      0          0
516              ?                ?                475.00     0.0140     24.88      20.38      0          0
519              ?                ?                278.00     0.0140     29.62      28.26      0          0
520              ?                ?                133.00     0.0182     28.26      27.11      0          0
541              ?                ?                325.00     0.0140     28.38      25.80      0          0
542              ?                ?                60.00      0.0182     25.80      25.38      0          0
544              ?                ?                295.00     0.0182     27.95      25.35      0          0
546              ?                ?                178.00     0.0140     27.17      25.93      0          0
549              ?                ?                138.00     0.0182     27.10      26.60      0          0
550              ?                ?                55.00      0.0182     26.60      25.97      0          0
552              ?                ?                165.00     0.0173     27.23      26.58      0          0
554              ?                ?                180.00     0.0182     27.43      27.23      0          0
556              ?                ?                68.00      0.0173     27.30      27.23      0          0
559              ?                ?                233.00     0.0140     30.10      29.80      0          0
560              ?                ?                75.00      0.0182     29.80      27.25      0          0
563              ?                ?                128.00     0.0173     30.77      29.70      0          0
565              ?                ?                245.00     0.0173     32.09      30.77      0          0
566              ?                ?                125.00     0.0182     32.57      32.09      0          0
568              ?                ?                138.00     0.0140     32.49      32.09      0          0
571              ?                ?                165.00     0.0182     24.48      23.76      0          0
578              ?                ?                210.00     0.0182     24.45      23.76      0          0
582              ?                ?                95.00      0.0182     23.76      23.29      0          0
583              ?                ?                110.00     0.0182     23.29      22.72      0          0
586              ?                ?                140.00     0.0182     23.53      22.79      0          0
588              ?                ?                50.00      0.0182     22.79      22.29      0          0
594              ?                ?                85.00      0.0192     22.29      21.82      0          0
598              ?                ?                90.00      0.0182     22.29      21.82      0          0
600              ?                ?                160.00     0.0182     21.82      21.16      0          0
602              ?                ?                90.00      0.0182     21.16      20.61      0          0
604              ?                ?                190.00     0.0182     20.61      19.52      0          0
606              ?                ?                103.00     0.0182     19.52      18.85      0          0
610              ?                ?                363.00     0.0182     20.93      18.85      0          0
616              ?                ?                93.00      0.0182     20.05      19.79      0          0
618              ?                ?                350.00     0.0182     19.79      18.85      0          0
619              ?                ?                275.00     0.0182     18.85      17.79      0          0
621              ?                ?                148.00     0.0182     21.64      20.61      0          0
626              ?                ?                188.00     0.0182     23.49      22.76      0          0
628              ?                ?                95.00      0.0182     22.76      22.34      0          0
630              ?                ?                225.00     0.0182     22.34      21.45      0          0
634              ?                ?                90.00      0.0182     21.45      20.91      0          0
636              ?                ?                98.00      0.0173     20.91      20.30      0          0
637              ?                ?                110.00     0.0173     20.30      19.59      0          0
641              ?                ?                183.00     0.0182     21.87      20.91      0          0
645              ?                ?                263.00     0.0182     21.45      20.30      0          0
649              ?                ?                75.00      0.0182     22.74      22.34      0          0
654              ?                ?                170.00     0.0182     23.53      22.96      0          0
656              ?                ?                320.00     0.0173     22.72      20.52      0          0
657              ?                ?                188.00     0.0173     20.52      19.59      0          0
659              ?                ?                222.00     0.0137     15.76      15.52      0          0
661              ?                ?                50.00      0.0137     15.52      14.74      0          0
669              ?                ?                120.00     0.0162     22.48      21.69      0          0
671              ?                ?                25.00      0.0140     29.65      29.56      0          0
672              ?                ?                135.00     0.0182     29.56      29.18      0          0
674              ?                ?                65.00      0.0173     22.41      21.94      0          0
676              ?                ?                63.00      0.0173     23.02      22.41      0          0
677              ?                ?                143.00     0.0173     21.94      21.32      0          0
678              ?                ?                220.00     0.0182     25.04      21.94      0          0
680              ?                ?                1125.00    0.0182     36.60      32.57      0          0
681              ?                ?                250.00     0.0173     29.70      27.25      0          0
685              ?                ?                174.00     0.0159     19.40      18.79      0          0
687              ?                ?                191.00     0.0159     18.79      17.86      0          0
688              ?                ?                441.00     0.0159     17.86      17.21      0          0
693              ?                ?                60.00      0.0140     32.00      31.30      0          0
695              ?                ?                60.00      0.0140     30.84      30.10      0          0
696              ?                ?                200.00     0.0140     30.10      29.55      0          0
697              ?                ?                130.00     0.0140     31.30      30.10      0          0
234              231              233              182.00     0.0182     17.91      17.37      0          0
709              ?                ?                300.00     0.0140     19.35      18.57      0          0
712              ?                ?                601.00     0.0140     30.84      29.12      0          0
714              ?                ?                505.00     0.0140     29.12      27.66      0          0
716              ?                ?                85.00      0.0140     27.66      27.20      0          0