;; SWMM5 .inp converted from XPSWMM .xp file
;; Generated by XPSWMM Card Reader
;; Source format: XP_CARD | Original title: Broward County NADA Study Model

[TITLE]
;;Project Title/Notes
Broward County NADA Study Model

[OPTIONS]
FLOW_UNITS           CFS
INFILTRATION         HORTON
FLOW_ROUTING         DYNWAVE
LINK_OFFSETS         DEPTH
MIN_SLOPE            0.0
ALLOW_PONDING        NO
SKIP_STEADY_STATE    NO
ROUTING_STEP         00:00:3600
VARIABLE_STEP        0.75
INERTIAL_DAMPING     NONE
NORMAL_FLOW_LIMITED  BOTH
MAX_TRIALS           50

[JUNCTIONS]
;;Name           Elev       MaxDepth   InitDepth  SurDepth   Aponded
;;-------------- ---------- ---------- ---------- ---------- ----------
CM9-STG          15.00      0          17.50      0          0
PT-STG1          0          0          0          0          0
CM2-STG          0          0          0          0          0
CM10-STG         14.00      0          17.50      0          0
CM4-STG          0          0          0          0          0
TOC14            0          0          0          0          0
D2-3             16.00      0          10.00      0          0
D2-1STG          0          0          0          0          0
D2-2STG          0          0          0          0          0
D2-3_STG         0          0          0          0          0
CS-W_STG         0          0          0          0          0
CS-E_STG         12.00      0          16.50      0          0
D2-7_STG         0          0          0          0          0
D2-5_STG         0          0          0          0          0
S-W_STG          12.00      0          17.50      0          0
S2_STG           14.00      0          17.50      0          0
451              0          0          0          0          0
456              0          0          0          0          0
482              14.00      0          17.50      0          0
495              0          0          0          0          0
S39-T            0          0          0          0          0
G56-H            0          0          0          0          0
S37B-H           14.00      0          17.50      0          0
513              0          0          0          0          0
517              0          0          0          0          0
520              0          0          0          0          0
522              0          0          0          0          0
524              0          0          0          0          0
525              0          0          0          0          0
538              0          0          0          0          0
548              15.00      0          17.50      0          0
550              0          0          0          0          0
552              0          0          0          0          0
554              15.00      0          17.50      0          0
555              15.00      0          17.50      0          0
560              0          0          0          0          0
561              0          0          0          0          0
562              0          0          0          0          0
566              0          0          0          0          0
570              14.00      0          17.50      0          0
571              14.00      0          17.50      0          0

[STORAGE]
;;Name           Elev       MaxDepth   InitDepth  Shape      Curve/Params
;;-------------- ---------- ---------- ---------- ---------- ----------
PT               17.00      0          21.00      FUNCTIONAL 0 0          0
TRCB             15.00      0          19.50      FUNCTIONAL 0 0          0
CM8              15.00      0          18.50      FUNCTIONAL 0 0          0
CM6              16.00      0          21.00      FUNCTIONAL 0 0          0
CM7              16.00      0          18.50      FUNCTIONAL 0 0          0
CM2              16.00      0          21.00      FUNCTIONAL 0 0          0
CM4              16.00      0          21.00      FUNCTIONAL 0 0          0
CM5              16.00      0          21.00      FUNCTIONAL 0 0          0
D2-1             16.00      0          20.00      FUNCTIONAL 0 0          0
D2-2             16.00      0          20.00      FUNCTIONAL 0 0          0
D2-4             16.00      0          20.00      FUNCTIONAL 0 0          0
D2-5             16.00      0          20.00      FUNCTIONAL 0 0          0
D2-7             14.00      0          16.00      FUNCTIONAL 0 0          0
D2-8             15.50      0          18.00      FUNCTIONAL 0 0          0
D2-12            16.00      0          20.00      FUNCTIONAL 0 0          0
D2-11            16.00      0          20.00      FUNCTIONAL 0 0          0
D2-10            16.00      0          20.00      FUNCTIONAL 0 0          0
D2-14            16.00      0          21.50      FUNCTIONAL 0 0          0
D2-15            16.00      0          10.00      FUNCTIONAL 0 0          0
D2-13            16.00      0          20.00      FUNCTIONAL 0 0          0
D3-2             15.00      0          20.00      FUNCTIONAL 0 0          0
D3-1             16.00      0          20.00      FUNCTIONAL 0 0          0
D3-3             16.00      0          20.00      FUNCTIONAL 0 0          0
D3-4             14.00      0          18.00      FUNCTIONAL 0 0          0
D3-7             14.00      -0.50      17.50      FUNCTIONAL 0 0          0
D3-5_STG         13.50      0          14.50      FUNCTIONAL 0 0          0
NSID-W           13.00      0          17.00      FUNCTIONAL 0 0          0
CH               17.00      0          20.00      FUNCTIONAL 0 0          0
NSID-E           17.00      0          19.00      FUNCTIONAL 0 0          0
SDD-WEST         12.00      0          17.50      FUNCTIONAL 0 0          0
SDD-EAST         14.00      0          17.50      FUNCTIONAL 0 0          0
CSID-WEST        12.00      -2.00      16.50      FUNCTIONAL 0 0          0
CSID-EAST        12.00      0          16.50      FUNCTIONAL 0 0          0
BC-1             16.00      0          21.00      FUNCTIONAL 0 0          0
D2-9             16.00      0          20.00      FUNCTIONAL 0 0          0
CM1              16.00      0          20.00      FUNCTIONAL 0 0          0
544              14.00      -0.50      17.50      FUNCTIONAL 0 0          0
545              14.00      -0.50      17.50      FUNCTIONAL 0 0          0
568              13.50      0          14.50      FUNCTIONAL 0 0          0

[CONDUITS]
;;Name           From             To               Length     Roughness  InOffset   OutOffset  InitFlow   MaxFlow
;;-------------- ---------------- ---------------- ---------- ---------- ---------- ---------- ---------- ----------
CM2-4_GW         CM4              CM2              0          0          0          0          0          0
CM4-5_GW         CM5              CM4              0          0          0          0          0          0
CM5-6_GW         CM5              CM6              0          0          0          0          0          0
CM5-TR_CL        CM5              TRCB             0          0          0          0          0          0
CM5-7_GW         CM5              CM7              0          0          0          0          0          0
TR-CM7_GW        TRCB             CM7              0          0          0          0          0          0
CM_Lyons1        CM6-7_GW         CM7              259.00     0.0120     0          0          0          0
CM_Lyons2        CM8              CM7              140.00     0.0140     0          0          0          0
CM4-PT_GW        CM4              PT               0          0          0          0          0          0
CM2-PT_GW        CM2              PT               0          0          0          0          0          0
D21-HC_GW        D2-1             D2-1STG          0          0          0          0          0          0
D22-WEIR         D2-2             D2-2STG          0          0          0          0          0          0
D24-5_GW         D2-4             D2-5             0          0          0          0          0          0
CS47-WEIR        D2-7             D2-7_STG         0          0          0          0          0          0
CS37-PIPE        D211-12_GW       D2-12            1037.00    0.0120     5.00       5.00       0          0
D3-10GW          D2-3             D2-10            0          0          0          0          0          0
BC1-D23_GW       BC-1             D2-3             0          0          0          0          0          0
D214-D32GW       D2-14            D3-2             0          0          0          0          0          0
NSW-NSE_GW       NSID-E           NSID-W           0          0          0          0          0          0
D21-D22_GW       D2-1             D2-2             0          0          0          0          0          0
D21-C4_GW        D2-1             CM4              0          0          0          0          0          0
BC1-C4_GW        BC-1             CM4              0          0          0          0          0          0
D29-BC1_GW       D2-9             BC-1             0          0          0          0          0          0
D22-29_GW        D2-9             D2-2             0          0          0          0          0          0
D25-D28_GW       D2-5             D2-8             0          0          0          0          0          0
D29-3_GW         D29-D23GW        D2-3             0          0          0          0          0          0
D21-9_GW         D2-9             D2-1             0          0          0          0          0          0
D22-3_GW         D2-3             D2-2             0          0          0          0          0          0
D24-HC_GW        D2-4             456              0          0          0          0          0          0
D23-4_GW         D2-3             D2-4             0          0          0          0          0          0
D23-5_GW         D2-3             D2-5             0          0          0          0          0          0
D11-14_GW        D2-11            D2-14            0          0          0          0          0          0
D23-CM4_GW       D2-3             CM4              0          0          0          0          0          0
C7-9_GW          CM7              548              0          0          0          0          0          0
C7-TOC14GW       CM7              TOC14            0          0          0          0          0          0
TR-S2_GW         TRCB             SDD-EAST         0          0          0          0          0          0
D29-CM4_GW       D2-9             CM4              0          0          0          0          0          0
D3_MT-PIPE       D31-3_GW         D3-3             220.00     0.0120     4.00       4.00       0          0
D214-13GW        D2-14            D2-13            0          0          0          0          0          0
D215-D31GW       D2-15            D3-1             0          0          0          0          0          0
D31-2_GW         CS40_PIPE        D3-1             4103.00    0.0120     4.00       4.00       0          0
D32-3_GW         D3-2             D3-3             0          0          0          0          0          0
D31-4_GW         D3-1             D3-4             0          0          0          0          0          0
D31-CM6_GW       D3-1             CM6              0          0          0          0          0          0
D31-CM8-GW       D3-1             CM8              0          0          0          0          0          0
S2BK-FLW         482              SDD-EAST         0          0          0          0          0          0
CSE-SE_GW        SDD-WEST         CSID-WEST        0          0          0          0          0          0
SE-SW_GW         SDD-EAST         SDD-WEST         0          0          0          0          0          0
CSE-SE_GW        SDD-EAST         CSID-EAST        0          0          0          0          0          0
SW-NSW_GW        SDD-WEST         NSID-W           0          0          0          0          0          0
SE-NSE_GW        NSID-E           SDD-EAST         0          0          0          0          0          0
NSE-PT_GW        NSID-E           PT               0          0          0          0          0          0
CH-PT_GW         CH               PT               0          0          0          0          0          0
CH-WEIR          CH               S39-T            0          0          0          0          0          0
CM7-C14_GW       CM7              S37B-H           0          0          0          0          0          0
D2-HC_GW         D2-HC_GW         522              0          0          0          0          0          0
NS-L36_GW        NSID-W           562              0          0          0          0          0          0
SW-L36_GW        SDD-WEST         561              0          0          0          0          0          0
CSW-L36_GW       CSID-WEST        560              0          0          0          0          0          0

[WEIRS]
;;Name           From             To               Type       CrestHt    Qcoeff     Gated    EndCon   EndCoeff   Surcharge
;;-------------- ---------------- ---------------- ---------- ---------- ---------- -------- -------- ---------- ----------
PT-P             PT               PT-STG1          TRANSVERSE 11.00      1.840      NO       0        0          YES
CS-46            CS46-WEIR        CM2-STG          TRANSVERSE 11.00      1.840      NO       0        0          YES
CS11-P           CM8              CM9-STG          TRANSVERSE 9.00       1.840      NO       0        0          YES
CS49-P           CM7              CM10-STG         TRANSVERSE 9.00       1.840      NO       0        0          YES
CS45-P           CM4              CM4-STG          TRANSVERSE 11.00      1.840      NO       0        0          YES
CS1-P            D2-3             D2-3_STG         TRANSVERSE 10.00      1.840      NO       0        0          YES
FP1              G56-H            CM1              TRANSVERSE 11.00      1.840      NO       0        0          YES
PT_GW            PT-HC_GW         513              TRANSVERSE 11.00      1.840      NO       0        0          YES
CS45-W           CS45-WEIR        517              TRANSVERSE 11.00      1.840      NO       0        0          YES
CM4-CH_GW        CM4              CM4-HC_GW        TRANSVERSE 11.00      1.840      NO       0        0          YES
CS1-W            CS1-W            524              TRANSVERSE 10.00      1.840      NO       0        0          YES
D23-HC-GW        D2-3             D23-HC_GW        TRANSVERSE 10.00      1.840      NO       0        0          YES
CS11-W           CS11-WEIR        554              TRANSVERSE 9.00       1.840      NO       0        0          YES
CM8-9_GW         CM8              CM8-9_GW         TRANSVERSE 9.00       1.840      NO       0        0          YES
CS49-WEIR        CM7              CS49-WEIR        TRANSVERSE 9.00       1.840      NO       0        0          YES
CM7-10_GW        CM7-10_GW        571              TRANSVERSE 9.00       1.840      NO       0        0          YES

[PUMPS]
;;Name           From             To               PumpCurve  Status   Startup    Shutoff
;;-------------- ---------------- ---------------- ---------- -------- ---------- ----------
CS34-PUMP        CS34-BLEED       CS34-WEIR        PC_CS34-PUMP ON       11.50      9.50      
CS-7             TR-C14_GW        TOC14            PC_CS-7    ON       10.50      9.00      
CS50-P           PT-TR_GW         TRCB             PC_CS50-P  ON       11.00      10.00     
CS2-P            D2-5             D2-5_STG         PC_CS2-P   ON       10.01      9.50      
CS3-PUMP         CS3-WEIR         D2-7             PC_CS3-PUMP ON       9.00       8.00      
CS4-PUMP         D2-12            D2-8             PC_CS4-PUMP ON       9.00       8.50      
CS36-FC2         D210-11_GW       CS57-PIPE        PC_CS36-FC2 ON       11.01      9.50      
CS36-FC1         D25-10_GW        D2-5             PC_CS36-FC1 ON       11.01      9.50      
D10-14_GW        CS35-P           D2-14            PC_D10-14_GW ON       11.00      9.00      
CS9-P            D3-4             D3-5_STG         PC_CS9-P   ON       9.01       7.49      
CS52-P           CS52-BLEED       D2-12            PC_CS52-P  ON       11.00      9.50      
CS8-PUMP         CS8-WEIR         D3-4             PC_CS8-PUMP ON       10.50      9.00      
CS12-P           D3-1             D3-7             PC_CS12-P  ON       10.00      8.00      
SE-P             SDD-EAST         S2_STG           PC_SE-P    ON       7.75       7.25      
SW-P             SDD-WEST         S-W_STG          PC_SW-P    ON       7.75       7.25      
CSW-P            CSID-WEST        CS-W_STG         PC_CSW-P   ON       7.25       6.50      
CSE-PUMP         CSID-EAST        CS-E_STG         PC_CSE-PUMP ON       7.25       6.50      
D25-11_GW        CS36_RECH        D2-11            PC_D25-11_GW ON       10.00      26.00     
CS2-RECH         D2-5             451              PC_CS2-RECH ON       9.00       4.00      
D25-HC_GW        D25-HC_GW        538              PC_D25-HC_GW ON       10.01      9.50      
CS12-WEIR        CS12-WEIR        544              PC_CS12-WEIR ON       10.00      8.00      
D31-C14_GW       D3-1             D31-C14_GW       PC_D31-C14_GW ON       10.00      8.00      
CSE-C14_GW       CSE-C14_GW       550              PC_CSE-C14_GW ON       7.25       6.50      
CSW-C14_GW       CSW-C14_GW       552              PC_CSW-C14_GW ON       7.25       6.50      
NS-P1            NS-P2            566              PC_NS-P1   ON       7.00       6.50      
CS9-WEIR         CS9-WEIR         568              PC_CS9-WEIR ON       9.01       7.49      

[CURVES]
;;Name           Type       X-Value    Y-Value
;;-------------- ---------- ---------- ----------
PC_CS34-PUMP     Pump3      0          0
;
PC_CS-7          Pump3      0          0
;
PC_CS50-P        Pump3      0          0
;
PC_CS2-P         Pump3      0          0
;
PC_CS3-PUMP      Pump3      0          0
;
PC_CS4-PUMP      Pump3      0          0
;
PC_CS36-FC2      Pump3      0          0
;
PC_CS36-FC1      Pump3      0          0
;
PC_D10-14_GW     Pump3      0          0
;
PC_CS9-P         Pump3      0          0
;
PC_CS52-P        Pump3      0          0
;
PC_CS8-PUMP      Pump3      0          0
;
PC_CS12-P        Pump3      0          0
;
PC_SE-P          Pump3      0          0
;
PC_SW-P          Pump3      0          0
;
PC_CSW-P         Pump3      0          0
;
PC_CSE-PUMP      Pump3      0          0
;
PC_D25-11_GW     Pump3      0          0
;
PC_CS2-RECH      Pump3      0          0
;
PC_D25-HC_GW     Pump3      0          0
;
PC_CS12-WEIR     Pump3      0          0
;
PC_D31-C14_GW    Pump3      0          0
;
PC_CSE-C14_GW    Pump3      0          0
;
PC_CSW-C14_GW    Pump3      0          0
;
PC_NS-P1         Pump3      0          0
;
PC_CS9-WEIR      Pump3      0          0
;

[XSECTIONS]
;;Link           Shape        Geom1      Geom2      Geom3      Geom4      Barrels
;;-------------- ------------ ---------- ---------- ---------- ---------- ----------
CM2-4_GW         CIRCULAR     0          0          0          0          1
CM4-5_GW         CIRCULAR     0          0          0          0          1
CM5-6_GW         CIRCULAR     0          0          0          0          1
CM5-TR_CL        CIRCULAR     0          0          0          0          1
CM5-7_GW         CIRCULAR     0          0          0          0          1
TR-CM7_GW        CIRCULAR     0          0          0          0          1
CM_Lyons1        CIRCULAR     5.00       0          0          0          1
CM_Lyons2        CIRCULAR     4.00       0          0          0          1
CM4-PT_GW        CIRCULAR     0          0          0          0          1
CM2-PT_GW        CIRCULAR     0          0          0          0          1
D21-HC_GW        CIRCULAR     0          0          0          0          1
D22-WEIR         CIRCULAR     0          0          0          0          1
D24-5_GW         CIRCULAR     0          0          0          0          1
CS47-WEIR        CIRCULAR     0          0          0          0          1
CS37-PIPE        CIRCULAR     4.50       0          0          0          1
D3-10GW          CIRCULAR     0          0          0          0          1
BC1-D23_GW       CIRCULAR     0          0          0          0          1
D214-D32GW       CIRCULAR     0          0          0          0          1
NSW-NSE_GW       CIRCULAR     0          0          0          0          1
D21-D22_GW       CIRCULAR     0          0          0          0          1
D21-C4_GW        CIRCULAR     0          0          0          0          1
BC1-C4_GW        CIRCULAR     0          0          0          0          1
D29-BC1_GW       CIRCULAR     0          0          0          0          1
D22-29_GW        CIRCULAR     0          0          0          0          1
D25-D28_GW       CIRCULAR     0          0          0          0          1
D29-3_GW         CIRCULAR     0          0          0          0          1
D21-9_GW         CIRCULAR     0          0          0          0          1
D22-3_GW         CIRCULAR     0          0          0          0          1
D24-HC_GW        CIRCULAR     0          0          0          0          1
D23-4_GW         CIRCULAR     0          0          0          0          1
D23-5_GW         CIRCULAR     0          0          0          0          1
D11-14_GW        CIRCULAR     0          0          0          0          1
D23-CM4_GW       CIRCULAR     0          0          0          0          1
C7-9_GW          CIRCULAR     0          0          0          0          1
C7-TOC14GW       CIRCULAR     0          0          0          0          1
TR-S2_GW         CIRCULAR     0          0          0          0          1
D29-CM4_GW       CIRCULAR     0          0          0          0          1
D3_MT-PIPE       CIRCULAR     3.50       0          0          0          1
D214-13GW        CIRCULAR     0          0          0          0          1
D215-D31GW       CIRCULAR     0          0          0          0          1
D31-2_GW         CIRCULAR     4.50       0          0          0          1
D32-3_GW         CIRCULAR     0          0          0          0          1
D31-4_GW         CIRCULAR     0          0          0          0          1
D31-CM6_GW       CIRCULAR     0          0          0          0          1
D31-CM8-GW       CIRCULAR     0          0          0          0          1
S2BK-FLW         CIRCULAR     0          0          0          0          1
CSE-SE_GW        CIRCULAR     0          0          0          0          1
SE-SW_GW         CIRCULAR     0          0          0          0          1
CSE-SE_GW        CIRCULAR     0          0          0          0          1
SW-NSW_GW        CIRCULAR     0          0          0          0          1
SE-NSE_GW        CIRCULAR     0          0          0          0          1
NSE-PT_GW        CIRCULAR     0          0          0          0          1
CH-PT_GW         CIRCULAR     0          0          0          0          1
CH-WEIR          CIRCULAR     0          0          0          0          1
CM7-C14_GW       CIRCULAR     0          0          0          0          1
D2-HC_GW         CIRCULAR     0          0          0          0          1
NS-L36_GW        CIRCULAR     0          0          0          0          1
SW-L36_GW        CIRCULAR     0          0          0          0          1
CSW-L36_GW       CIRCULAR     0          0          0          0          1
PT-P             RECT_OPEN    0          4.00       0          0          
CS-46            RECT_OPEN    0          3.00       0          0          
CS11-P           RECT_OPEN    0          16.50      0          0          
CS49-P           RECT_OPEN    0          20.00      0          0          
CS45-P           RECT_OPEN    0          3.00       0          0          
CS1-P            RECT_OPEN    0          18.00      0          0          
FP1              RECT_OPEN    0          4.00       0          0          
PT_GW            RECT_OPEN    0          4.00       0          0          
CS45-W           RECT_OPEN    0          3.00       0          0          
CM4-CH_GW        RECT_OPEN    0          3.00       0          0          
CS1-W            RECT_OPEN    0          18.00      0          0          
D23-HC-GW        RECT_OPEN    0          18.00      0          0          
CS11-W           RECT_OPEN    0          16.50      0          0          
CM8-9_GW         RECT_OPEN    0          16.50      0          0          
CS49-WEIR        RECT_OPEN    0          20.00      0          0          
CM7-10_GW        RECT_OPEN    0          20.00      0          0          

[LOSSES]
;;Link           Inlet      Outlet     Average    Flap Gate
;;-------------- ---------- ---------- ---------- ----------
CM2-4_GW         0          0          0          NO
CM4-5_GW         0          0          0          NO
CM5-6_GW         0          0          0          NO
CM5-TR_CL        0          0          0          NO
CM5-7_GW         0          0          0          NO
TR-CM7_GW        0          0          0          NO
CM_Lyons1        0          0          0          NO
CM_Lyons2        0          0          0          NO
CM4-PT_GW        0          0          0          NO
CM2-PT_GW        0          0          0          NO
D21-HC_GW        0          0          0          NO
D22-WEIR         0          0          0          NO
D24-5_GW         0          0          0          NO
CS47-WEIR        0          0          0          NO
CS37-PIPE        0          0          0          NO
D3-10GW          0          0          0          NO
BC1-D23_GW       0          0          0          NO
D214-D32GW       0          0          0          NO
NSW-NSE_GW       0          0          0          NO
D21-D22_GW       0          0          0          NO
D21-C4_GW        0          0          0          NO
BC1-C4_GW        0          0          0          NO
D29-BC1_GW       0          0          0          NO
D22-29_GW        0          0          0          NO
D25-D28_GW       0          0          0          NO
D29-3_GW         0          0          0          NO
D21-9_GW         0          0          0          NO
D22-3_GW         0          0          0          NO
D24-HC_GW        0          0          0          NO
D23-4_GW         0          0          0          NO
D23-5_GW         0          0          0          NO
D11-14_GW        0          0          0          NO
D23-CM4_GW       0          0          0          NO
C7-9_GW          0          0          0          NO
C7-TOC14GW       0          0          0          NO
TR-S2_GW         0          0          0          NO
D29-CM4_GW       0          0          0          NO
D3_MT-PIPE       0          0          0          NO
D214-13GW        0          0          0          NO
D215-D31GW       0          0          0          NO
D31-2_GW         0          0          0          NO
D32-3_GW         0          0          0          NO
D31-4_GW         0          0          0          NO
D31-CM6_GW       0          0          0          NO
D31-CM8-GW       0          0          0          NO
S2BK-FLW         0          0          0          NO
CSE-SE_GW        0          0          0          NO
SE-SW_GW         0          0          0          NO
CSE-SE_GW        0          0          0          NO
SW-NSW_GW        0          0          0          NO
SE-NSE_GW        0          0          0          NO
NSE-PT_GW        0          0          0          NO
CH-PT_GW         0          0          0          NO
CH-WEIR          0          0          0          NO
CM7-C14_GW       0          0          0          NO
D2-HC_GW         0          0          0          NO
NS-L36_GW        0          0          0          NO
SW-L36_GW        0          0          0          NO
CSW-L36_GW       0          0          0          NO

[COORDINATES]
;;Node           X-Coord            Y-Coord
;;-------------- ------------------ ------------------
PT               -715819.63         758530.04         
TRCB             -705657.20         759727.61         
CM9-STG          -689065.71         770184.98         
CM8              -695736.53         771532.77         
CM6              -702165.08         771001.84         
CM7              -699595.70         765196.77         
CM2              -721544.45         766160.31         
CM4              -714869.95         768091.12         
CM5              -710164.44         767194.82         
PT-STG1          -724935.73         760133.75         
CM2-STG          -725016.62         766550.06         
CM10-STG         -688980.46         766567.63         
CM4-STG          -724413.26         771768.86         
TOC14            -694961.43         756808.25         
D2-1             -722530.42         773805.46         
D2-2             -721009.54         776087.81         
D2-3             -713038.81         776664.81         
D2-4             -723041.89         780673.88         
D2-5             -718923.37         784116.22         
D2-7             -723372.03         790412.15         
D2-8             -718407.68         790366.34         
D2-12            -713861.67         788847.38         
D2-11            -711998.64         783727.68         
D2-10            -712894.01         780649.85         
D2-14            -707607.83         781583.81         
D2-15            -707731.49         775388.84         
D2-13            -708020.51         787835.90         
D3-2             -704347.83         783891.72         
D3-1             -700138.11         777162.07         
D3-3             -702041.58         786040.58         
D3-4             -695097.25         784928.17         