;; SWMM5 .inp converted from XPSWMM .xp file
;; Generated by XPSWMM Card Reader
;; Source format: XP_CARD | Original title: THIS IS AREA 91 , BRIDGEPORT

[TITLE]
;;Project Title/Notes
THIS IS AREA 91 , BRIDGEPORT

[OPTIONS]
FLOW_UNITS           CFS
INFILTRATION         HORTON
FLOW_ROUTING         DYNWAVE
LINK_OFFSETS         DEPTH
MIN_SLOPE            0.0
ALLOW_PONDING        NO
SKIP_STEADY_STATE    NO
ROUTING_STEP         00:00:300
VARIABLE_STEP        0.75
INERTIAL_DAMPING     PARTIAL
NORMAL_FLOW_LIMITED  BOTH

[JUNCTIONS]
;;Name           Elev       MaxDepth   InitDepth  SurDepth   Aponded
;;-------------- ---------- ---------- ---------- ---------- ----------
91A17            0          0          0          0          0
91A18            0          0          0          0          0
91A19            0          0          0          0          0
91A20            0          0          0          0          0
91A21            0          0          0          0          0
91A22            0          0          0          0          0
91A24            0          0          0          0          0
91A25            0          0          0          0          0
91A30            0          0          0          0          0
91A31            0          0          0          0          0
91A32            0          0          0          0          0
91A33            0          0          0          0          0
91A34            0          0          0          0          0
91A35            0          0          0          0          0
91A36            0          0          0          0          0
91A37            0          0          0          0          0
91A40            0          0          0          0          0
91A41            0          0          0          0          0
91A42            0          0          0          0          0
91A43            0          0          0          0          0
91A44            0          0          0          0          0
91A45            0          0          0          0          0
91A46            0          0          0          0          0
91A50            0          0          0          0          0
91A51            0          0          0          0          0
91A52            0          0          0          0          0
91A53            0          0          0          0          0
91A54            0          0          0          0          0
91A55            0          0          0          0          0
91A56            0          0          0          0          0
91A57            0          0          0          0          0
91A60            0          0          0          0          0
91A61            0          0          0          0          0
91A62            0          0          0          0          0
91A63            0          0          0          0          0
91A64            0          0          0          0          0
91A65            0          0          0          0          0
91A70            0          0          0          0          0
91A71            0          0          0          0          0
91A72            0          0          0          0          0
91A73            0          0          0          0          0
91A74            0          0          0          0          0
91A75            0          0          0          0          0
91A80            0          0          0          0          0
91A81            0          0          0          0          0
91A82            0          0          0          0          0
91A83            0          0          0          0          0
91A84            0          0          0          0          0
91A85            0          0          0          0          0
91A86            0          0          0          0          0
91A87            0          0          0          0          0
91A88            0          0          0          0          0
91A89            0          0          0          0          0
91B10            0          0          0          0          0
91B11            0          0          0          0          0
91B12            0          0          0          0          0
91B13            0          0          0          0          0
91B14            0          0          0          0          0
91B15            0          0          0          0          0
91B16            0          0          0          0          0
91B17            0          0          0          0          0
91B18            0          0          0          0          0
91B19            0          0          0          0          0
91B20            0          0          0          0          0
91B21            0          0          0          0          0
91B22            0          0          0          0          0
91B23            0          0          0          0          0
91B24            0          0          0          0          0
91B25            0          0          0          0          0
91B26            0          0          0          0          0
91B30            0          0          0          0          0
91B31            0          0          0          0          0
91B32            0          0          0          0          0
91B33            0          0          0          0          0
91B34            0          0          0          0          0
91B35            0          0          0          0          0
91B36            0          0          0          0          0
91B37            0          0          0          0          0
91B40            0          0          0          0          0
91B41            0          0          0          0          0
91B42            0          0          0          0          0
91B43            0          0          0          0          0
91B50            0          0          0          0          0
91B51            0          0          0          0          0
91B52            0          0          0          0          0
91B53            0          0          0          0          0
91B54            0          0          0          0          0
91B55            0          0          0          0          0
91B56            0          0          0          0          0
91B60            0          0          0          0          0
91B61            0          0          0          0          0
91B62            0          0          0          0          0
91B63            0          0          0          0          0
91B64            0          0          0          0          0
91B65            0          0          0          0          0
91B66            0          0          0          0          0
91B67            0          0          0          0          0
91B68            0          0          0          0          0
91B69            0          0          0          0          0
91B70            0          0          0          0          0
91B71            0          0          0          0          0
91B72            0          0          0          0          0
91B73            0          0          0          0          0
91B74            0          0          0          0          0
91B75            0          0          0          0          0
91B78            0          0          0          0          0
91B79            0          0          0          0          0
91B80            0          0          0          0          0
91B81            0          0          0          0          0
91B82            0          0          0          0          0
91B83            0          0          0          0          0
91B84            0          0          0          0          0
91B85            0          0          0          0          0
91B86            0          0          0          0          0
91B87            0          0          0          0          0
91B88            0          0          0          0          0
91B89            0          0          0          0          0
91B90            0          0          0          0          0
91B91            0          0          0          0          0
91B92            0          0          0          0          0
91B93            0          0          0          0          0
91B94            0          0          0          0          0
91B95            0          0          0          0          0
91B96            0          0          0          0          0
91B97            0          0          0          0          0
91B98            0          0          0          0          0
91B99            0          0          0          0          0
91B99A           0          0          0          0          0
91C10            0          0          0          0          0
91C11            0          0          0          0          0
91C12            0          0          0          0          0
91C13            0          0          0          0          0
91C14            0          0          0          0          0
91C15            0          0          0          0          0
91C16            0          0          0          0          0
91C17            0          0          0          0          0
91D01            0          0          0          0          0
91D02            0          0          0          0          0
91D03            0          0          0          0          0
91D04            0          0          0          0          0
91D10            0          0          0          0          0
91D11            0          0          0          0          0
91D12            0          0          0          0          0
91D13            0          0          0          0          0
91D14            0          0          0          0          0
91D15            0          0          0          0          0
91D16            0          0          0          0          0
91D17            0          0          0          0          0
91D20            0          0          0          0          0
91D21            0          0          0          0          0
91D22            0          0          0          0          0
91D23            0          0          0          0          0
91D30            0          0          0          0          0
91D31            0          0          0          0          0
91D32            0          0          0          0          0
91D33            0          0          0          0          0
91D34            0          0          0          0          0
91D35            0          0          0          0          0
91D36            0          0          0          0          0
91D37            0          0          0          0          0
91D38            0          0          0          0          0
91D39            0          0          0          0          0
91D40            0          0          0          0          0
91D41            0          0          0          0          0
91D42            0          0          0          0          0
91D43            0          0          0          0          0
91D44            0          0          0          0          0
91D45            0          0          0          0          0
91D46            0          0          0          0          0
91D47            0          0          0          0          0
91D48            0          0          0          0          0
91D49            0          0          0          0          0
91D50            0          0          0          0          0
91D51            0          0          0          0          0
91D52            0          0          0          0          0
91D53            0          0          0          0          0
91D54            0          0          0          0          0
91D55            0          0          0          0          0
91D56            0          0          0          0          0
91D57            0          0          0          0          0
91D58            0          0          0          0          0
91D60            0          0          0          0          0
91D61            0          0          0          0          0
91D62            0          0          0          0          0
91D63            0          0          0          0          0
91D64            0          0          0          0          0
91D65            0          0          0          0          0
91D66            0          0          0          0          0
91D67            0          0          0          0          0
91D68            0          0          0          0          0
91D69            0          0          0          0          0
91D70            0          0          0          0          0
91D71            0          0          0          0          0
91D72            0          0          0          0          0
91D73            0          0          0          0          0
91D74            0          0          0          0          0
91D75            0          0          0          0          0
91D76            0          0          0          0          0
91D77            0          0          0          0          0
91D78            0          0          0          0          0
91D79            0          0          0          0          0
91D80            0          0          0          0          0
91D81            0          0          0          0          0
91D82            0          0          0          0          0
91D83            0          0          0          0          0
91D84            0          0          0          0          0
91D85            0          0          0          0          0
91D86            0          0          0          0          0
91D87            0          0          0          0          0
91D88            0          0          0          0          0
91D93            0          0          0          0          0
91D93A           0          0          0          0          0
91D94            0          0          0          0          0
91D95            0          0          0          0          0
91D96            0          0          0          0          0
91D97            0          0          0          0          0
91D98            0          0          0          0          0
91D99            0          0          0          0          0
91E10            0          0          0          0          0
91E11            0          0          0          0          0
91E12            0          0          0          0          0
91E13            0          0          0          0          0
91E14            0          0          0          0          0
91E15            0          0          0          0          0
91E16            0          0          0          0          0
91E17            0          0          0          0          0
91E18            0          0          0          0          0
91E19            0          0          0          0          0
91E20            0          0          0          0          0
91E21            0          0          0          0          0
91E22            0          0          0          0          0
91E23            0          0          0          0          0
91E24            0          0          0          0          0
91E25            0          0          0          0          0
91E26            0          0          0          0          0
91E26A           0          0          0          0          0
91E26B           0          0          0          0          0
91E26C           0          0          0          0          0
91E26D           0          0          0          0          0
91E27            0          0          0          0          0
91E28            0          0          0          0          0
91E29            0          0          0          0          0
91E30            0          0          0          0          0
91E31            0          0          0          0          0
91E32            0          0          0          0          0
91E35            0          0          0          0          0
91E36            0          0          0          0          0
91E37            0          0          0          0          0
91E38            0          0          0          0          0
91E40            0          0          0          0          0
91E41            0          0          0          0          0
91E42            0          0          0          0          0
91E43            0          0          0          0          0
91E44            0          0          0          0          0
91E45            0          0          0          0          0
91E46            0          0          0          0          0
91E47            0          0          0          0          0
91E48            0          0          0          0          0
91E49            0          0          0          0          0
91E50            0          0          0          0          0
91E51            0          0          0          0          0
91E52            0          0          0          0          0
91E60            0          0          0          0          0
91E61            0          0          0          0          0
91E62            0          0          0          0          0
91E63            0          0          0          0          0
91E63A           0          0          0          0          0
91E64            0          0          0          0          0
91E65            0          0          0          0          0
91E66            0          0          0          0          0
91E67            0          0          0          0          0
91E68            0          0          0          0          0
91E69            0          0          0          0          0
91E70            0          0          0          0          0
91F10            0          0          0          0          0
91F11            0          0          0          0          0
91F12            0          0          0          0          0
91F12A           0          0          0          0          0
91F12B           0          0          0          0          0
91F12C           0          0          0          0          0
91F16            0          0          0          0          0
91F20            0          0          0          0          0
91F21            0          0          0          0          0
91F22            0          0          0          0          0
91F23            0          0          0          0          0
91F30            0          0          0          0          0
91F31            0          0          0          0          0
91F32            0          0          0          0          0
91F33            0          0          0          0          0
91F34            0          0          0          0          0
91F35            0          0          0          0          0
91F36            0          0          0          0          0
91F37            0          0          0          0          0
91F42A           0          0          0          0          0
91F42B           0          0          0          0          0
91F43            0          0          0          0          0
91F44            0          0          0          0          0
91F45            0          0          0          0          0
91F46            0          0          0          0          0
91F47            0          0          0          0          0
91F48            0          0          0          0          0
91F49            0          0          0          0          0

[CONDUITS]
;;Name           From             To               Length     Roughness  InOffset   OutOffset  InitFlow   MaxFlow
;;-------------- ---------------- ---------------- ---------- ---------- ---------- ---------- ---------- ----------
P91A17           Node_91          Node_18001801    0          0          0          0          0          0
P91A18           Node_91          Node_18011802    0          0          0          0          0          0
P91A19           Node_91          Node_18021803    0          0          0          0          0          0
P91A20           Node_91          Node_18031804    0          0          0          0          0          0
P91A21           Node_91          Node_18041805    0          0          0          0          0          0
P91A22           Node_91          Node_18051806    0          0          0          0          0          0
P91A24           Node_91          Node_18061807    0          0          0          0          0          0
P91A25           Node_91          Node_18071853    0          0          0          0          0          0
P91A30           Node_91          Node_18081809    0          0          0          0          0          0
P91A31           Node_91          Node_18091810    0          0          0          0          0          0
P91A32           Node_91          Node_18101811    0          0          0          0          0          0
P91A33           Node_91          Node_18111812    0          0          0          0          0          0
P91A34           Node_91          Node_18121813    0          0          0          0          0          0
P91A35           Node_91          Node_18131814    0          0          0          0          0          0
P91A36           Node_91          Node_18141815    0          0          0          0          0          0
P91A40           Node_91          Node_18161817    0          0          0          0          0          0
P91A41           Node_91          Node_18171818    0          0          0          0          0          0
P91A42           Node_91          Node_18181819    0          0          0          0          0          0
P91A43           Node_91          Node_18191820    0          0          0          0          0          0
P91A44           Node_91          Node_182018      0          0          0          0          0          0
P91A45           Node_91          Node_18211822    0          0          0          0          0          0
P91A46           Node_91          Node_18221830    0          0          0          0          0          0
P91A50           Node_50          Node_18231824    0          0          0          0          0          0
P91A51           Node_51          Node_18241825    0          0          0          0          0          0
P91A52           Node_52          Node_18251826    0          0          0          0          0          0
P91A53           Node_53          Node_18261827    0          0          0          0          0          0
P91A54           Node_54          Node_18271828    0          0          0          0          0          0
P91A55           Node_55          Node_18281829    0          0          0          0          0          0
P91A56           Node_56          Node_18291830    0          0          0          0          0          0
P91A57           Node_57          Node_18301836    0          0          0          0          0          0
P91A60           Node_60          Node_18311832    0          0          0          0          0          0
P91A61           Node_61          Node_18321833    0          0          0          0          0          0
P91A62           Node_62          Node_18331834    0          0          0          0          0          0
P91A63           Node_63          Node_18341835    0          0          0          0          0          0
P91A64           Node_64          Node_18351836    0          0          0          0          0          0
P91A65           Node_65          Node_18361842    0          0          0          0          0          0
P91A70           Node_70          Node_18371838    0          0          0          0          0          0
P91A71           Node_71          Node_18381839    0          0          0          0          0          0
P91A72           Node_72          Node_18391840    0          0          0          0          0          0
P91A73           Node_73          Node_18401841    0          0          0          0          0          0
P91A74           Node_74          Node_18411842    0          0          0          0          0          0
P91A75           Node_75          Node_18421852    0          0          0          0          0          0
P91A80           Node_80          Node_18431845    0          0          0          0          0          0
P91A81           Node_81          Node_18441845    0          0          0          0          0          0
P91A82           Node_82          Node_18451847    0          0          0          0          0          0
P91A83           Node_83          Node_18461847    0          0          0          0          0          0
P91A84           Node_84          Node_18471848    0          0          0          0          0          0
P91A85           Node_85          Node_18481849    0          0          0          0          0          0
P91A86           Node_86          Node_18491850    0          0          0          0          0          0
P91A87           Node_87          Node_18501851    0          0          0          0          0          0
P91A88           Node_88          Node_18511852    0          0          0          0          0          0
P91A89           Node_89          Node_18521853    0          0          0          0          0          0
P91B10           Node_91          Node_18531862    0          0          0          0          0          0
P91B11           Node_91          Node_18541855    0          0          0          0          0          0
P91B12           Node_91          Node_18551858    0          0          0          0          0          0
P91B13           Node_91          Node_18561857    0          0          0          0          0          0
P91B14           Node_91          Node_18571858    0          0          0          0          0          0
P91B15           Node_91          Node_18581859    0          0          0          0          0          0
P91B16           Node_91          Node_18591860    0          0          0          0          0          0
P91B17           Node_91          Node_18601861    0          0          0          0          0          0
P91B18           Node_91          Node_18611862    0          0          0          0          0          0
P91B19           Node_91          Node_18621868    0          0          0          0          0          0
P91B20           Node_91          Node_18631864    0          0          0          0          0          0
P91B21           Node_91          Node_18641865    0          0          0          0          0          0
P91B22           Node_91          Node_18651866    0          0          0          0          0          0
P91B23           Node_91          Node_18661867    0          0          0          0          0          0
P91B24           Node_91          Node_18671868    0          0          0          0          0          0
P91B25           Node_91          Node_18681869    0          0          0          0          0          0
P91B26           Node_91          Node_18691878    0          0          0          0          0          0
P91B30           Node_91          Node_18701871    0          0          0          0          0          0
P91B31           Node_91          Node_18711875    0          0          0          0          0          0
P91B32           Node_91          Node_18721873    0          0          0          0          0          0
P91B33           Node_91          Node_18731874    0          0          0          0          0          0
P91B34           Node_91          Node_18741875    0          0          0          0          0          0
P91B35           Node_91          Node_18751877    0          0          0          0          0          0
P91B36           Node_91          Node_18761877    0          0          0          0          0          0
P91B37           Node_91          Node_18771878    0          0          0          0          0          0
P91B40           Node_91          Node_18781879    0          0          0          0          0          0
P91B41           Node_91          Node_18791880    0          0          0          0          0          0
P91B42           Node_91          Node_18801881    0          0          0          0          0          0
P91B43           Node_91          Node_18811887    0          0          0          0          0          0
P91B50           Node_50          Node_18821883    0          0          0          0          0          0
P91B51           Node_51          Node_18831884    0          0          0          0          0          0
P91B52           Node_52          Node_18841885    0          0          0          0          0          0
P91B53           Node_53          Node_18851886    0          0          0          0          0          0
P91B54           Node_54          Node_18861887    0          0          0          0          0          0
P91B55           Node_55          Node_18871888    0          0          0          0          0          0
P91B56           Node_56          Node_18881901    0          0          0          0          0          0
P91B60           Node_60          Node_18891892    0          0          0          0          0          0
P91B61           Node_61          Node_18901891    0          0          0          0          0          0
P91B62           Node_62          Node_18911892    0          0          0          0          0          0
P91B63           Node_63          Node_18921895    0          0          0          0          0          0
P91B64           Node_64          Node_18931894    0          0          0          0          0          0