;; SWMM5 .inp converted from XPSWMM .xp file
;; Generated by XPSWMM Card Reader
;; Source format: XP_CARD | Original title: (none)

[TITLE]
;;Project Title/Notes
Converted from XPSWMM .xp file

[OPTIONS]
FLOW_UNITS           CFS
INFILTRATION         HORTON
FLOW_ROUTING         DYNWAVE
LINK_OFFSETS         DEPTH
MIN_SLOPE            0.0
ALLOW_PONDING        NO
SKIP_STEADY_STATE    NO
ROUTING_STEP         00:00:30
VARIABLE_STEP        0.75
INERTIAL_DAMPING     PARTIAL
NORMAL_FLOW_LIMITED  BOTH
MAX_TRIALS           50

[JUNCTIONS]
;;Name           Elev       MaxDepth   InitDepth  SurDepth   Aponded
;;-------------- ---------- ---------- ---------- ---------- ----------
0                51.00      0          0          0          0
1                51.00      0          0          0          0
2                53.80      0          0          0          0
3                54.00      0          0          0          0
4                50.00      0          0          0          0
5                44.00      0          0          0          0
4-1              63.10      0          0          0          0
4-1-2            64.60      0          0          0          0
4-2              62.30      0          0          0          0
4-4              67.00      0          0          0          0
6-1              65.00      0          0          0          0
6-2              63.95      0          0          0          0
6-4              66.80      0          0          0          0
6-5              67.30      0          0          0          0
6-2-2            67.95      0          0          0          0
6-3              64.20      0          0          0          0
6-3-1            66.40      0          0          0          0
6                61.00      0          0          0          0
7-1              55.37      0          0          0          0
8                59.40      0          0          0          0
7-2              58.55      0          0          0          0
6-2-4            68.45      0          0          0          0
6-2-5            69.20      0          0          0          0
6-2-3            68.29      0          0          0          0
9                59.40      0          0          0          0
10               59.30      0          0          0          0
11               70.00      0          0          0          0
12               68.00      0          0          0          0
11-50            62.60      0          0          0          0
11-51            62.80      0          0          0          0
13-1-4           69.80      0          0          0          0
13-1-3           69.70      0          0          0          0
13-1-2           69.70      0          0          0          0
13               68.40      0          0          0          0
13-1             69.20      0          0          0          0
13-1-1           69.40      0          0          0          0
12-3             64.20      0          0          0          0
14               71.50      0          0          0          0
15               70.00      0          0          0          0
13-1-1-1         70.30      0          0          0          0
16               69.80      0          0          0          0
15-50            65.30      0          0          0          0
15-2             69.50      0          0          0          0
13-1-1-3         70.00      0          0          0          0
15-3             68.90      0          0          0          0
11-2             68.70      0          0          0          0
11-3             68.90      0          0          0          0
11-4             70.00      0          0          0          0
13-3             70.20      0          0          0          0
13-4             70.80      0          0          0          0
13-5             70.70      0          0          0          0
13-6             70.80      0          0          0          0
13-3-1           69.60      0          0          0          0
11-5             69.20      0          0          0          0
11-7             68.74      0          0          0          0
11-8             68.50      0          0          0          0
11-9             69.00      0          0          0          0
4-1-1            63.80      0          0          0          0
4-3              62.43      0          0          0          0
7                61.00      0          0          0          0
11-1             67.97      0          0          0          0
11-6             68.83      0          0          0          0
6-2-1            67.55      0          0          0          0
6-6              67.00      0          0          0          0
12-1             63.00      0          0          0          0
12-2             63.90      0          0          0          0
12-4             64.20      0          0          0          0
14-1             72.00      0          0          0          0
15-1             69.70      0          0          0          0
15-4             68.90      0          0          0          0
13-2             70.00      0          0          0          0
13-1-1-2         70.30      0          0          0          0
10A              59.30      0          0          0          0

[CONDUITS]
;;Name           From             To               Length     Roughness  InOffset   OutOffset  InitFlow   MaxFlow
;;-------------- ---------------- ---------------- ---------- ---------- ---------- ---------- ---------- ----------
1to0             1                0                746.00     0.0130     20.33      15.50      0          0
2to1             2                1                870.00     0.0130     24.90      20.33      0          0
4to3             4                3                150.00     0.0400     27.50      31.26      0          0
3to2             3                2                190.00     0.0150     31.26      30.85      0          0
5to4             5                4                312.00     0.0150     29.00      27.50      0          0
41to4            4-1              4                414.00     0.0150     55.00      45.56      0          0
44to43p          4-4              4-3              577.00     0.0130     60.98      58.67      0          0
42to41p          4-2              4-1              381.00     0.0130     55.95      55.00      0          0
622to621p        6-2-2            6-2-1            717.00     0.0130     54.48      53.62      0          0
62to61p          6-2              6-1              466.00     0.0130     48.70      48.00      0          0
65to64p          6-5              6-4              210.00     0.0130     57.68      57.15      0          0
64to63p          6-4              6-3              386.00     0.0130     57.15      55.99      0          0
63to62p          6-3              6-2              130.00     0.0130     51.43      51.20      0          0
631to63p         6-3-1            6-3              483.00     0.0130     58.36      57.15      0          0
61to6p           6-1              6                820.00     0.0130     48.00      46.36      0          0
71to7p           7-1              7                240.00     0.0140     45.07      44.81      0          0
8to7             8                7                250.00     0          43.41      43.13      0          0
6to5             6                5                1380.00    0.0130     40.00      29.00      0          0
72to71p          7-2              7-1              536.00     0.0130     47.96      47.37      0          0
625to624p        6-2-5            6-2-4            1080.00    0.0130     58.65      57.46      0          0
624to623p        6-2-4            6-2-3            522.00     0.0130     56.96      56.36      0          0
623to622p        6-2-3            6-2-2            704.00     0.0130     55.86      54.98      0          0
bob1             ?                ?                33.00      0.0140     58.50      45.85      0          0
1151t1150p       11-51            11-50            720.00     0.0130     57.48      56.40      0          0
1150to11p        11-50            11               75.00      0.0130     56.40      56.37      0          0
10to9            10               9                415.00     0.0150     45.35      44.50      0          0
9to8             9                8                948.50     0.0130     44.50      43.41      0          0
1314t1313p       13-1-4           13-1-3           400.00     0.0130     65.69      64.49      0          0
1313t1312p       13-1-3           13-1-2           410.00     0.0130     63.49      62.67      0          0
13to12p          13               12               885.00     0.0130     54.50      58.50      0          0
1312t1311p       13-1-2           13-1-1           395.00     0.0130     62.17      61.38      0          0
1311to131p       13-1-1           13-1             573.75     0.0130     59.31      58.16      0          0
131to13p         13-1             13               148.00     0.0130     56.60      55.50      0          0
15to14p          15               14               148.00     0.0130     57.70      57.55      0          0
14to13p          14               13               1052.00    0.0130     57.55      56.50      0          0
13111t1311       13-1-1-1         13-1-1           395.00     0.0130     61.10      60.31      0          0
16to15p          16               15               750.00     0.0130     63.34      62.29      0          0
1550to15p        15-50            15               1150.00    0.0130     59.82      58.44      0          0
153to152p        15-3             15-2             367.00     0.0130     64.32      63.73      0          0
133to132p        13-3             13-2             951.00     0.0130     59.71      59.04      0          0
114to113p        11-4             11-3             200.00     0.0130     61.63      61.49      0          0
113to112p        11-3             11-2             314.00     0.0130     61.49      61.27      0          0
111to11p         11-1             11               600.00     0.0130     61.70      60.65      0          0
136to135p        13-6             13-5             373.30     0.0130     63.10      62.61      0          0
135to134p        13-5             13-4             216.90     0.0130     61.61      61.50      0          0
1331t133p        13-3-1           13-3             456.00     0.0130     63.79      62.74      0          0
119to118p        11-9             11-8             474.00     0.0130     63.52      62.72      0          0
118to117p        11-8             11-7             200.00     0.0130     62.72      62.46      0          0
116to115p        11-6             11-5             558.50     0.0130     62.42      61.91      0          0
115to114p        11-5             11-4             414.00     0.0130     61.91      61.63      0          0
412to411p        4-1-2            4-1-1            250.00     0.0140     57.51      57.01      0          0
411to41p         4-1-1            4-1              164.00     0.0130     57.01      56.52      0          0
43to42p          4-3              4-2              80.00      0.0140     57.20      57.00      0          0
7to6p            7                6                75.00      0.0130     43.13      43.09      0          0
112to111p        11-2             11-1             292.50     0.0130     61.27      61.70      0          0
117to116p        11-7             11-6             40.50      0.0130     62.46      62.42      0          0
621to62p         6-2-1            6-2              320.00     0.0130     53.62      53.14      0          0
66to65p          6-6              6-5              190.00     0.0130     58.75      58.18      0          0
124to123p        12-4             12-3             378.00     0.0130     59.21      58.53      0          0
123to122p        12-3             12-2             346.00     0.0130     58.53      57.91      0          0
122to121p        12-2             12-1             622.00     0.0130     57.91      56.67      0          0
121to12p         12-1             12               75.00      0.0130     56.67      58.50      0          0
141to14p         14-1             14               380.00     0.0130     63.43      63.05      0          0
152to151p        15-2             15-1             710.00     0.0130     63.73      62.88      0          0
151to15p         15-1             15               200.00     0.0130     62.88      62.30      0          0
154to153p        15-4             15-3             700.00     0.0130     65.22      64.32      0          0
132to131p        13-2             13-1             520.00     0.0130     59.04      58.68      0          0
134to133p        13-4             13-3             373.30     0.0130     61.01      60.71      0          0
13113t112p       13-1-1-3         13-1-1-2         445.00     0.0130     62.74      61.85      0          0
13112to11p       13-1-1-2         13-1-1-1         135.00     0.0130     61.85      61.60      0          0
11to10ap         11               10A              180.00     0.0130     45.85      45.49      0          0
10ato10p         10A              10               143.00     0.0240     45.49      45.35      0          0

[XSECTIONS]
;;Link           Shape        Geom1      Geom2      Geom3      Geom4      Barrels
;;-------------- ------------ ---------- ---------- ---------- ---------- ----------
1to0             RECT_CLOSED  10.00      10.00      0          0          1
2to1             RECT_CLOSED  11.00      10.00      0          0          2
4to3             TRAPEZOIDAL  12.00      20.00      0          0          1
3to2             CIRCULAR     10.00      0          0          0          1
5to4             CIRCULAR     10.00      0          0          0          1
41to4            CIRCULAR     3.50       0          0          0          1
44to43p          CIRCULAR     1.75       0          0          0          1
42to41p          CIRCULAR     3.00       0          0          0          1
622to621p        CIRCULAR     5.50       0          0          0          1
62to61p          CIRCULAR     5.50       0          0          0          1
65to64p          CIRCULAR     3.00       0          0          0          1
64to63p          CIRCULAR     3.00       0          0          0          1
63to62p          CIRCULAR     3.00       0          0          0          1
631to63p         CIRCULAR     2.00       0          0          0          1
61to6p           CIRCULAR     5.50       0          0          0          1
71to7p           CIRCULAR     4.00       0          0          0          1
8to7             IRREGULAR    14.00      0          0          0          1
6to5             CIRCULAR     10.00      12.00      0          0          1
72to71p          CIRCULAR     3.00       0          0          0          1
625to624p        CIRCULAR     4.00       0          0          0          1
624to623p        CIRCULAR     4.50       0          0          0          1
623to622p        CIRCULAR     5.00       0          0          0          1
bob1             CIRCULAR     2.00       0          0          0          1
1151t1150p       CIRCULAR     3.00       0          0          0          1
1150to11p        CIRCULAR     3.50       0          0          0          1
10to9            TRAPEZOIDAL  8.00       4.00       0          0          1
9to8             RECT_CLOSED  8.00       10.00      0          0          1
1314t1313p       CIRCULAR     2.00       0          0          0          1
1313t1312p       CIRCULAR     3.00       0          0          0          1
13to12p          CIRCULAR     9.00       0          0          0          1
1312t1311p       CIRCULAR     3.50       0          0          0          1
1311to131p       CIRCULAR     4.00       0          0          0          1
131to13p         CIRCULAR     5.50       0          0          0          1
15to14p          CIRCULAR     7.00       0          0          0          1
14to13p          CIRCULAR     7.00       0          0          0          1
13111t1311       CIRCULAR     3.00       0          0          0          1
16to15p          CIRCULAR     3.50       0          0          0          1
1550to15p        CIRCULAR     3.00       0          0          0          1
153to152p        CIRCULAR     2.50       0          0          0          1
133to132p        CIRCULAR     5.00       0          0          0          1
114to113p        CIRCULAR     5.00       0          0          0          1
113to112p        CIRCULAR     5.00       0          0          0          1
111to11p         RECT_CLOSED  5.00       6.00       0          0          1
136to135p        CIRCULAR     2.50       0          0          0          1
135to134p        CIRCULAR     3.50       0          0          0          1
1331t133p        CIRCULAR     2.00       0          0          0          1
119to118p        CIRCULAR     2.00       0          0          0          1
118to117p        CIRCULAR     2.50       0          0          0          1
116to115p        CIRCULAR     3.50       0          0          0          1
115to114p        CIRCULAR     4.00       0          0          0          1
412to411p        CIRCULAR     2.50       0          0          0          1
411to41p         CIRCULAR     2.50       0          0          0          1
43to42p          CIRCULAR     2.50       0          0          0          1
7to6p            CIRCULAR     10.00      12.00      0          0          1
112to111p        CIRCULAR     5.00       6.00       0          0          1
117to116p        CIRCULAR     3.00       0          0          0          1
621to62p         CIRCULAR     5.50       0          0          0          1
66to65p          CIRCULAR     2.50       0          0          0          1
124to123p        CIRCULAR     2.50       0          0          0          1
123to122p        CIRCULAR     3.00       0          0          0          1
122to121p        CIRCULAR     3.00       0          0          0          1
121to12p         CIRCULAR     3.50       0          0          0          1
141to14p         CIRCULAR     3.00       0          0          0          1
152to151p        CIRCULAR     3.00       0          0          0          1
151to15p         CIRCULAR     3.00       0          0          0          1
154to153p        CIRCULAR     2.50       0          0          0          1
132to131p        CIRCULAR     5.00       0          0          0          1
134to133p        CIRCULAR     4.00       0          0          0          1
13113t112p       CIRCULAR     2.50       0          0          0          1
13112to11p       CIRCULAR     2.50       0          0          0          1
11to10ap         CIRCULAR     11.00      8.00       0          0          1
10ato10p         CIRCULAR     5.00       0          0          0          2

[LOSSES]
;;Link           Inlet      Outlet     Average    Flap Gate
;;-------------- ---------- ---------- ---------- ----------
1to0             0          0          0          NO
2to1             0          0          0          NO
4to3             0          0          0          NO
3to2             0          0          0          NO
5to4             0          0          0          NO
41to4            0          0          0          NO
44to43p          0          0          0          NO
42to41p          0          0          0          NO
622to621p        0          0          0          NO
62to61p          0          0          0          NO
65to64p          0          0          0          NO
64to63p          0          0          0          NO
63to62p          0          0          0          NO
631to63p         0          0          0          NO
61to6p           0          0          0          NO
71to7p           0          0          0          NO
8to7             0          0          0          NO
6to5             0          0          0          NO
72to71p          0          0          0          NO
625to624p        0          0          0          NO
624to623p        0          0          0          NO
623to622p        0          0          0          NO
bob1             0          0          0          NO
1151t1150p       0          0          0          NO
1150to11p        0          0          0          NO
10to9            0          0          0          NO
9to8             0          0          0          NO
1314t1313p       0          0          0          NO
1313t1312p       0          0          0          NO
13to12p          0          0          0          NO
1312t1311p       0          0          0          NO
1311to131p       0          0          0          NO
131to13p         0          0          0          NO
15to14p          0          0          0          NO
14to13p          0          0          0          NO
13111t1311       0          0          0          NO
16to15p          0          0          0          NO
1550to15p        0          0          0          NO
153to152p        0          0          0          NO
133to132p        0          0          0          NO
114to113p        0          0          0          NO
113to112p        0          0          0          NO
111to11p         0          0          0          NO
136to135p        0          0          0          NO
135to134p        0          0          0          NO
1331t133p        0          0          0          NO
119to118p        0          0          0          NO
118to117p        0          0          0          NO
116to115p        0          0          0          NO
115to114p        0          0          0          NO
412to411p        0          0          0          NO
411to41p         0          0          0          NO
43to42p          0          0          0          NO
7to6p            0          0          0          NO
112to111p        0          0          0          NO
117to116p        0          0          0          NO
621to62p         0          0          0          NO
66to65p          0          0          0          NO
124to123p        0          0          0          NO
123to122p        0          0          0          NO
122to121p        0          0          0          NO
121to12p         0          0          0          NO
141to14p         0          0          0          NO
152to151p        0          0          0          NO
151to15p         0          0          0          NO
154to153p        0          0          0          NO
132to131p        0          0          0          NO
134to133p        0          0          0          NO
13113t112p       0          0          0          NO
13112to11p       0          0          0          NO
11to10ap         0          0          0          NO
10ato10p         0          0          0          NO

[COORDINATES]
;;Node           X-Coord            Y-Coord
;;-------------- ------------------ ------------------
0                -716271.82         3124677.38        
1                -715774.76         3124335.74        
2                -715149.87         3123766.33        
3                -715069.39         3123582.86        
4                -714932.11         3123527.88        
5                -714786.07         3123220.49        
4-1              -714506.77         3123483.59        
4-1-2            -714236.93         3123145.87        
4-2              -714672.46         3123837.02        
4-4              -714023.90         3123872.36        
6-1              -713402.97         3122254.85        
6-2              -713417.17         3122733.94        
6-4              -713431.37         3123248.37        
6-5              -713384.76         3123465.06        
6-2-2            -712370.96         3122804.62        
6-3              -713421.90         3122850.94        
6-3-1            -713865.96         3122964.82        
6                -714220.03         3122227.36        
7-1              -714442.53         3122176.31        
8                -714049.61         3122019.23        
7-2              -714949.77         3122195.95        
6-2-4            -711156.91         3122871.38        
6-2-5            -710101.32         3122922.43        
6-2-3            -711672.42         3122847.82        
9                -713421.88         3121577.24        
10               -713407.68         3121157.06        
11               -713376.65         3120880.42        
12               -713318.38         3120575.34        
11-50            -713447.44         3120883.91        
11-51            -714134.09         3120837.22        
13-1-4           -712046.40         3119077.95        
13-1-3           -712458.26         3119058.32        
13-1-2           -712832.24         3119077.95        
13               -713281.97         3119812.29        
13-1             -713210.96         3119718.04        
13-1-1           -713210.96         3119148.64        
12-3             -714270.42         3120143.33        
14               -713244.22         3118764.10        
15               -713242.21         3118602.40        
13-1-1-1         -713191.08         3118762.62        
16               -713202.44         3117862.56        
15-50            -713617.14         3117829.58        
15-2             -712492.34         3118432.75        
13-1-1-3         -712742.30         3118644.81        
15-3             -712123.09         3118442.18        
11-2             -712532.11         3120930.29        
11-3             -712145.82         3120953.85        
11-4             -711958.35         3120972.70        
13-3             -711759.52         3119789.91        
13-4             -711395.95         3119832.32        
13-5             -711174.40         3119841.74        
13-6             -710810.83         3119855.88        
13-3-1           -711776.57         3119346.95        
11-5             -711537.97         3121005.69        
11-7             -710961.41         3121031.58        
11-8             -710941.49         3120850.18        
11-9             -710869.63         3120343.07        
4-1-1            -714412.89         3123337.43        
4-3              -714592.23         3123838.97        
7                -714204.20         3122182.43        
11-1             -712761.29         3120917.89        
11-6             -711046.10         3121036.90        
6-2-1            -713100.41         3122763.99        
6-6              -713309.10         3123624.16        
12-1             -713399.75         3120527.84        
12-2             -713906.48         3120283.58        
12-4             -714604.95         3119976.84        
14-1             -713628.26         3118749.89        
15-1             -713175.82         3118396.90        
15-4             -711448.00         3118494.28        
13-2             -712701.86         3119748.62        
13-1-1-2         -713181.69         3118623.91        
10A              -713378.73         3121025.81        

[MAP]
DIMENSIONS -716271.82 3117829.58 -710101.32 3124677.38
Units      None

[REPORT]
INPUT            YES
SUBCATCHMENTS    ALL
NODES            ALL
LINKS            ALL



