;; SWMM5 .inp converted from XPSWMM .xp file
;; Generated by XPSWMM Card Reader
;; Source format: XP_CARD | Original title: C-1 CALIBRATION 1994

[TITLE]
;;Project Title/Notes
C-1 CALIBRATION 1994

[OPTIONS]
FLOW_UNITS           CFS
INFILTRATION         HORTON
FLOW_ROUTING         DYNWAVE
LINK_OFFSETS         DEPTH
MIN_SLOPE            0.0
ALLOW_PONDING        NO
SKIP_STEADY_STATE    NO
ROUTING_STEP         00:00:30
VARIABLE_STEP        0.75
INERTIAL_DAMPING     PARTIAL
NORMAL_FLOW_LIMITED  BOTH
MAX_TRIALS           50
HEAD_TOLERANCE       0.0033

[JUNCTIONS]
;;Name           Elev       MaxDepth   InitDepth  SurDepth   Aponded
;;-------------- ---------- ---------- ---------- ---------- ----------
L31N-1           19.40      0          19.10      0          0
L31N-2           17.00      0          19.80      0          0
L31N-3           16.30      0          19.80      0          0
L31N-4           16.00      0          18.10      0          0
L31N-5           16.00      0          19.00      0          0
L31N-6           16.00      0          19.00      0          0
S338-W           17.00      0          8.05       0          0
S338-E           15.00      0          7.85       0          0
B1-W             16.00      0          7.85       0          0
B2-W             15.00      0          7.85       0          0
C1-1             15.00      0          8.05       0          0
C1-2             15.00      0          8.05       0          0
C1-3             15.00      0          8.25       0          0
B3-N             15.00      0          9.05       0          0
C1-4             15.00      0          12.15      0          0
B4-W             15.00      0          12.65      0          0
B5-W             15.00      0          12.75      0          0
U1-S             15.00      0          14.55      0          0
B6-N             15.00      0          13.15      0          0
B7-S             15.00      0          12.55      0          0
B8-S             15.00      0          12.45      0          0
B9-N             15.00      0          14.75      0          0
B10-S            15.00      0          14.25      0          0
B11-E            15.00      0          14.85      0          0
L31N-7           16.00      0          21.30      0          0
L31N-8           15.20      0          21.30      0          0
C1-5             15.00      0          14.65      0          0
S148-W           15.00      0          13.55      0          0
S148-E           15.00      0          13.55      0          0
B12-W            15.00      0          13.55      0          0
B13-E            15.00      0          16.35      0          0
B14-W            15.00      0          15.45      0          0
C1-6             15.00      0          16.75      0          0
B15-N            15.00      0          16.95      0          0
B16-N            15.00      0          15.95      0          0
B17-W            15.00      0          16.95      0          0
S21-W            15.00      0          15.15      0          0
S21-E            15.00      0          15.15      0          0
B1-E             15.00      0          7.85       0          0
B2-E             15.00      0          7.85       0          0
B3-S             15.00      0          10.25      0          0
B4-E             15.00      0          12.75      0          0
B5-E             15.00      0          12.65      0          0
U1-N             15.00      0          13.25      0          0
B6-S             15.00      0          13.15      0          0
B7-N             15.00      0          10.75      0          0
B8-N             15.00      0          12.55      0          0
B9-S             15.00      0          14.75      0          0
B10-N            15.00      0          14.25      0          0
B11-W            15.00      0          14.85      0          0
B12-E            15.00      0          14.55      0          0
B14-E            15.00      0          16.75      0          0
B13-W            15.00      0          16.35      0          0
B15-S            15.00      0          16.95      0          0
B16-S            15.00      0          14.95      0          0
B17-E            15.00      0          16.95      0          0
B21-S            15.00      0          15.05      0          0
B21-N            15.00      0          18.65      0          0
B20-S            15.00      0          19.45      0          0
B20-N            15.00      0          19.45      0          0
C1N-2            15.00      0          17.65      0          0
B19-E            15.00      0          15.85      0          0
B19-W            15.00      0          9.25       0          0
B18-E            15.00      0          9.25       0          0
B18-W            15.00      0          9.25       0          0
S149-E           15.00      0          9.25       0          0
S149-W           15.00      0          6.85       0          0
U9-E             15.00      0          8.75       0          0
U9-W             15.00      0          8.75       0          0
U8-S             15.00      0          10.15      0          0
U8-N             15.00      0          10.15      0          0
U7-S             15.00      0          9.15       0          0
U7-N             15.00      0          8.85       0          0
U6-S             15.00      0          5.85       0          0
U6-N             15.00      0          5.45       0          0
U5-S             15.00      0          5.45       0          0
U5-N             15.00      0          4.95       0          0
U4-E             15.00      0          5.05       0          0
U4-W             15.00      0          5.05       0          0
U3-E             15.00      0          4.95       0          0
U3-W             15.00      0          6.75       0          0
U2-E             15.00      0          6.75       0          0
U2-W             15.00      0          6.05       0          0
B22-N            15.00      0          8.75       0          0
B22-S            15.00      0          8.75       0          0
U16-S            15.00      0          8.45       0          0
U17-S            15.00      0          5.35       0          0
U18-S            15.00      0          5.65       0          0
N-C1-1           15.00      0          12.95      0          0
U13-S            15.00      0          12.95      0          0
U13-N            15.00      0          12.95      0          0
U12-N            15.00      0          12.95      0          0
U12-S            15.00      0          12.95      0          0
U11-E            15.00      0          12.95      0          0
U11-W            15.00      0          0.55       0          0
U16-N            15.00      0          8.45       0          0
U17-N            15.00      0          5.65       0          0
U18-N            15.00      0          5.65       0          0
S122             15.00      0          16.45      0          0
U10-W            15.00      0          8.75       0          0
U10-E            15.00      0          8.76       0          0
C1N-1-1          15.00      0          15.05      0          0
U19-S            15.00      0          5.65       0          0
U19-N            15.00      0          3.55       0          0
U15-S            15.00      0          4.85       0          0
U15-N            15.00      0          3.95       0          0
U14-S            15.00      0          12.95      0          0
U14-N            15.00      0          12.95      0          0
U20-S            15.00      0          3.55       0          0
U20-N            15.00      0          3.55       0          0
S336-W           19.40      0          15.20      0          0
S334-E           19.40      0          15.20      0          0
S335-S           20.00      0          15.20      0          0
G211-S           16.00      0          19.00      0          0
S331-SW          15.00      0          19.40      0          0
S173-SW          15.00      0          19.40      0          0
C1N-1            15.00      0          6.05       0          0
L31N-9           15.00      0          21.30      0          0
DUMMY            17.00      0          8.05       0          0

[STORAGE]
;;Name           Elev       MaxDepth   InitDepth  Shape      Curve/Params
;;-------------- ---------- ---------- ---------- ---------- ----------
L31N-E-1         15.00      0          1.00       FUNCTIONAL 0 0          0
L31N-E-2         15.00      0          1.10       FUNCTIONAL 0 0          0
CC1-N-1          16.50      0          0          FUNCTIONAL 39100000.00 0          0
C1-N-1           17.00      0          0          FUNCTIONAL 19900000.00 0          0
C1-S-1           15.00      0          0          FUNCTIONAL 19500000.00 0          0
C1-N-2           15.00      0          0          FUNCTIONAL 44100000.00 0          0
C1-S-2           15.00      0          0          FUNCTIONAL 46200000.00 0          0
C1-N-3           15.00      0          0          FUNCTIONAL 0 0          0
C1-N-4           15.00      0          0          FUNCTIONAL 0 0          0
C1-N-5           15.00      0          0          FUNCTIONAL 40400000.00 0          0
C1-S-3           15.00      0          0          FUNCTIONAL 46000000.00 0          0
C1-S-4           15.00      0          0          FUNCTIONAL 25200000.00 0          0
C1-N-6           15.00      0          0          FUNCTIONAL 32300000.00 0          0
C1-S-5           15.00      0          0          FUNCTIONAL 33900000.00 0          0
C1-N-7           17.00      0          0          FUNCTIONAL 15000000.00 0          0
C1-S-6           15.00      0          0          FUNCTIONAL 13500000.00 0          0
C1-N-8           17.00      0          0          FUNCTIONAL 22800000.00 0          0
C1-S-8           18.00      0          0          FUNCTIONAL 28800000.00 0          0
ZOO              15.20      0          0          FUNCTIONAL 0 0          0
C1-N-9           15.00      0          0          FUNCTIONAL 12100000.00 0          0
C1-S-9           16.00      0          0          FUNCTIONAL 74800000.00 0          0
CC1-S-1          15.00      0          0          FUNCTIONAL 26200000.00 0          0
CC1-S-2          15.00      0          0          FUNCTIONAL 32900000.00 0          0
CC1-S-3          15.00      0          0          FUNCTIONAL 35300000.00 0          0
CC1-S-4          15.00      0          0          FUNCTIONAL 27900000.00 0          0
CC1-S-5          15.00      0          0          FUNCTIONAL 25300000.00 0          0
CC1-S-6          15.00      0          0          FUNCTIONAL 28700000.00 0          0
CC1-S-8          15.00      0          0          FUNCTIONAL 28800000.00 0          0
CC1-S-7          15.00      0          0          FUNCTIONAL 29600000.00 0          0
CC1-S-9          15.50      0          0          FUNCTIONAL 20700000.00 0          0
CC1-S-10         15.00      0          0          FUNCTIONAL 28700000.00 0          0
C1-S-7           15.00      0          0          FUNCTIONAL 20400000.00 0          0
C1-N-10          15.00      0          0          FUNCTIONAL 9900000.00 0          0
C1-S-11          15.00      0          0          FUNCTIONAL 40300000.00 0          0
C1-S-12          15.00      0          0          FUNCTIONAL 0 0          0
LANDFILL         15.00      0          0          FUNCTIONAL 14200000.00 0          0
CC1-N-2          15.00      0          0          FUNCTIONAL 13900000.00 0          0
CC1N-N-1         15.00      0          0          FUNCTIONAL 0 0          0
C1N-N-1          15.00      0          0          FUNCTIONAL 4750000.00 0          0
C1N-N-2          15.00      0          0          FUNCTIONAL 0 0          0
C1N-N-3          15.00      0          0          FUNCTIONAL 6170000.00 0          0
C1N-S-1          15.00      0          0          FUNCTIONAL 1820000.00 0          0
C1N-S-2          15.00      0          0          FUNCTIONAL 3450000.00 0          0
C1N-W-1          16.00      0          0          FUNCTIONAL 3700000.00 0          0
C1N-E-1          15.10      0          0          FUNCTIONAL 0 0          0
C1N-W-2          16.00      0          0          FUNCTIONAL 18800000.00 0          0
C1N-E-2          15.00      0          0          FUNCTIONAL 0 0          0
CC1N-E-3         17.00      0          0          FUNCTIONAL 46700000.00 0          0
CC1N-E-1         16.00      0          0          FUNCTIONAL 0 0          0
C1N-N-4          15.00      0          0          FUNCTIONAL 9220000.00 0          0
CC1N-E-2         17.00      0          0          FUNCTIONAL 16500000.00 0          0
CC1N-N-2         15.00      0          0          FUNCTIONAL 5620000.00 0          0
C1N-W-5          15.00      0          0          FUNCTIONAL 8420000.00 0          0
C1N-W-3          17.00      0          0          FUNCTIONAL 26600000.00 0          0
C1N-W-4          15.00      0          0          FUNCTIONAL 0 0          0
C1N-S-3          15.00      0          0          FUNCTIONAL 7220000.00 0          0
CC1-N-3          15.00      0          0          FUNCTIONAL 8620000.00 0          0
C1-N-11          15.00      0          0          FUNCTIONAL 902000.00 0          0
C1N-E-3          15.00      0          0          FUNCTIONAL 35700000.00 0          0
C1N-N-5          15.00      0          0          FUNCTIONAL 3900000.00 0          0
C1-N-12          15.00      0          0          FUNCTIONAL 4570000.00 0          0
CC1-N-4          15.00      0          0          FUNCTIONAL 0 0          0
C1-N-13          15.00      0          0          FUNCTIONAL 7590000.00 0          0
L31E-W-1         15.00      0          0          FUNCTIONAL 10800000.00 0          0
L31E-W-2         15.00      0          0          FUNCTIONAL 0 0          0
L31E-W-3         15.00      0          0          FUNCTIONAL 0 0          0
P-T              15.00      0          0          FUNCTIONAL 0 0          0
C1-S-10          15.00      0          0          FUNCTIONAL 14400000.00 0          0
C1N-W-3A         15.00      0          0          FUNCTIONAL 21800000.00 0          0

[CONDUITS]
;;Name           From             To               Length     Roughness  InOffset   OutOffset  InitFlow   MaxFlow
;;-------------- ---------------- ---------------- ---------- ---------- ---------- ---------- ---------- ----------
L31-C-2          L31N-1           L31N-2           10481.00   0.0140     -13.10     -13.10     0          0
L31-C-3          L31N-2           L31N-3           15781.00   0.0140     -13.80     -13.80     0          0
L31-C-4          L31N-3           L31N-4           6915.00    0.0140     -12.10     -12.10     0          0
L31-C-5          L31N-4           L31N-5           3789.00    0.0140     -12.10     -12.10     0          0
T-L31W-1         L31N-E-1         L31N-2           50.00      0.0140     7.90       6.25       0          0
T-L31W-2         L31N-E-2         L31N-3           50.00      0.0140     8.80       6.25       0          0
T-L31W-3         CC1-N-1          L31N-4           50.00      0.0140     8.30       6.25       0          0
C1-C-1           DUMMY            S338-W           5453.00    0.0140     -6.10      -6.10      0          0
C1-C-8           B3-S             C1-4             3303.00    0.0140     -8.30      -8.30      0          0
C1-C-9           C1-4             B4-W             870.00     0.0140     -10.20     -10.20     0          0
C1-C-10          B4-E             B5-W             2043.00    0          -10.80     -10.80     0          0
C1-C-2           S338-E           B1-W             125.00     0.0140     -5.90      -5.90      0          0
C1-C-3           B1-E             B2-W             648.00     0.0140     -5.90      -5.90      0          0
C1-C-6           C1-2             C1-3             1749.00    0.0140     -6.10      -6.10      0          0
C1-C-7           C1-3             B3-N             7431.00    0.0140     -6.30      -6.30      0          0
C1-C-4           B2-E             C1-1             4695.00    0.0140     -5.90      -5.90      0          0
C1-C-5           C1-1             C1-2             4685.00    0.0140     -6.10      -6.10      0          0
C1-C-11          B5-E             U1-N             4682.00    0.0140     -10.70     -10.70     0          0
C1-C-12          U1-S             B6-N             3050.00    0.0140     -9.30      -9.30      0          0
C1-C-13          B6-S             B7-N             2280.00    0          -8.10      -8.10      0          0
T-C1N1S338       C1-N-1           B1-W             50.00      0.0140     11.50      11.00      0          0
T-C1S1S338       C1-S-1           B1-W             50.00      0.0140     8.29       8.00       0          0
T-C1N2-C11       C1-N-2           C1-1             50.00      0.0140     8.30       8.00       0          0
T-C1S2-C11       C1-S-2           C1-1             50.00      0.0140     8.30       8.00       0          0
T-C1N3-C12       C1-N-3           C1-2             50.00      0.0140     8.76       8.00       0          0
T-C1N4-C13       C1-N-4           C1-3             50.00      0.0140     9.00       8.00       0          0
T-C1N5-B3        C1-N-5           B3-N             50.00      0.0140     8.70       8.00       0          0
T-C1S3-B3        C1-S-3           B3-N             50.00      0.0140     8.60       7.00       0          0
TC1S4-C1-4       C1-S-4           C1-4             50.00      0.0140     8.90       8.00       0          0
T-C1N1-U1        C1-N-6           U1-N             50.00      0.0140     7.10       6.00       0          0
T-C1S5-U1        C1-S-5           U1-N             50.00      0.0140     7.50       7.00       0          0
T-C1N7-B7        C1-N-7           B7-N             50.00      0.0140     8.20       7.00       0          0
T-C1S6-B7        C1-S-6           B7-N             50.00      0.0140     6.80       6.00       0          0
C1-C-14          B7-S             B8-N             4319.00    0.0140     -10.60     -10.60     0          0
C1-C-15          B8-S             B9-N             2342.00    0          -10.30     -10.30     0          0
C1-C-16          B9-S             B10-N            6814.00    0          -9.00      -9.00      0          0
T-C1N8-B10       C1-N-8           B10-N            50.00      0.0140     8.20       7.00       0          0
T-C1S8-B10       C1-S-8           B10-N            50.00      0.0140     7.00       6.50       0          0
T-ZOO-B8         ZOO              B8-N             50.00      0.0140     10.20      9.00       0          0
C1-C-17          B10-S            B11-W            3289.00    0          -11.00     -11.00     0          0
T-C1-9-B11       C1-N-9           B11-W            50.00      0.0140     6.50       6.00       0          0
T-C1S9-B11       C1-S-9           B11-W            50.00      0.0140     7.30       7.00       0          0
L31-C-7          L31N-6           L31N-7           5283.00    0.0140     -13.00     -13.00     0          0
L31-C-8          L31N-7           L31N-8           6114.00    0.0140     -15.30     -15.30     0          0
T-L31W-6         CC1-S-1          L31N-7           50.00      0.0140     8.90       5.50       0          0
T-L31W-7         CC1-S-2          L31N-8           50.00      0.0140     8.90       5.00       0          0
T-L31W-8         CC1-S-3          L31N-9           50.00      0.0140     8.50       4.95       0          0
C1-C-18          B11-E            C1-5             3349.00    0          -12.70     -12.70     0          0
C1-C-19          C1-5             S148-W           1965.00    0.0140     -11.60     -11.60     0          0
S148             S148-W           S148-E           36.00      0.0140     -7.00      -8.00      0          0
C1-C-20          S148-E           B12-W            1747.00    0.0140     -11.60     -11.60     0          0
C1-C-21          B12-E            B13-W            104.00     0          -11.60     -11.60     0          0
C1-C-22          B13-E            B14-W            1832.00    0          -12.50     -12.50     0          0
C1-C-23          B14-E            C1-6             3487.00    0          -14.80     -14.80     0          0
C1-C-24          C1-6             B15-N            611.00     0.0140     -14.50     -14.50     0          0
C1-C-25          B15-S            B16-N            2793.00    0          -14.00     -14.00     0          0
C1-C-26          B16-S            B17-W            6078.00    0          -13.00     -13.00     0          0
C1-C-27          B17-E            S21-W            6048.00    0.0140     -13.20     -13.20     0          0
S21              S21-W            S21-E            50.00      0.0140     -13.20     -13.20     0          0
T-C1S7-B8        C1-S-7           B8-N             50.00      0.0140     7.00       7.00       0          0
B1               B1-W             B1-E             46.40      0.0140     -4.30      -4.30      0          0
B2               B2-W             B2-E             13.10      0.0140     -5.90      -5.90      0          0
B3               B3-N             B3-S             25.00      0.0140     -7.10      -7.10      0          0
B4               B4-W             B4-E             33.00      0.0140     -10.70     -10.70     0          0
B5               B5-W             B5-E             43.10      0.0140     -10.10     -10.10     0          0
U1               U1-N             U1-S             112.00     0.0140     -11.30     -12.60     0          0
B6               B6-N             B6-S             52.90      0.0140     -11.20     -11.20     0          0
B7               B7-N             B7-S             29.80      0.0140     -8.80      -8.80      0          0
B8               B8-N             B8-S             55.75      0.0140     -10.50     -10.50     0          0
B9               B9-N             B9-S             37.90      0.0140     -12.80     -12.80     0          0
B10              B10-N            B10-S            38.00      0.0140     -12.30     -12.30     0          0
B11              B11-W            B11-E            38.00      0.0140     -12.90     -12.90     0          0
B12              B12-W            B12-E            11.80      0.0140     -12.60     -12.60     0          0
B14              B14-W            B14-E            62.60      0          -12.50     -12.50     0          0
B13              B13-W            B13-E            99.00      0.0140     -14.40     -14.40     0          0
B15              B15-N            B15-S            125.00     0.0140     -15.00     -15.00     0          0
B16              B16-N            B16-S            38.00      0.0140     -11.45     -11.45     0          0
B17              B17-W            B17-E            38.80      0.0140     -15.00     -15.00     0          0
C1N-C-15         B21-S            C1N-1-1          2259.00    0          -13.10     -13.10     0          0
B21              B21-N            B21-S            38.00      0          -6.60      -6.60      0          0
B20              B20-N            B20-S            38.00      0.0140     -17.50     -17.50     0          0
C1N-C-14         B20-S            B21-N            4056.00    0          -16.70     -16.70     0          0
C1N-C-13         C1N-2            B20-N            1092.00    0.0140     -15.70     -15.70     0          0
C1N-C-12         B19-E            C1N-2            1939.00    0          -13.90     -13.90     0          0
B19              B19-W            B19-E            108.75     0.0140     -4.40      -4.40      0          0
B18              B18-W            B18-E            62.95      0.0140     -3.40      -3.40      0          0
C1N-C-11         B18-E            B19-W            410.00     0          -7.30      -7.30      0          0
C1N-C-10         S149-E           B18-W            924.00     0.0140     -7.30      -7.30      0          0
C1N-C-9          U9-E             S149-W           754.00     0.0140     -4.90      -4.90      0          0
U9               U9-W             U9-E             97.00      0.0140     -6.80      -6.80      0          0
U8               U8-N             U8-S             89.00      0.0140     -8.20      -8.20      0          0
C1N-C-8          U8-S             U9-W             2766.00    0          -3.70      -3.70      0          0
U7               U7-N             U7-S             127.00     0.0140     -6.90      -7.20      0          0
C1N-C-7          U7-S             U8-N             3284.00    0          -5.00      -5.00      0          0
U6               U6-N             U6-S             179.00     0.0140     -3.00      -3.00      0          0
C1N-C-6          U6-S             U7-N             5367.00    0.0140     -3.90      -3.90      0          0
U5               U5-N             U5-S             179.00     0.0140     -3.00      -3.00      0          0
C1N-C-5          U5-S             U6-N             5334.00    0          -3.50      -3.50      0          0
U4               U4-W             U4-E             125.00     0.0140     -3.10      -3.10      0          0
C1N-C-4          U4-E             U5-N             639.00     0          -2.80      -2.80      0          0
U3               U3-W             U3-E             79.00      0.0140     -3.00      -3.00      0          0
C1N-C-3          U3-E             U4-W             2697.00    0          -2.90      -2.90      0          0
U2               U2-W             U2-E             160.00     0.0140     -2.70      -2.70      0          0
C1N-C-2          U2-E             U3-W             1750.00    0.0140     -4.80      -4.80      0          0
B22              B22-S            B22-N            38.00      0          -1.90      -1.90      0          0
C1N-C-19         B22-N            C1N-1-1          800.00     0          -6.80      -6.80      0          0
122              N-C1-1           C1-5             1170.00    0.0140     1.70       1.70       0          0
N-C1-C-4         U13-S            U14-N            1263.00    0.0140     -11.00     -11.00     0          0
N-C1-C-3         U12-S            U13-N            630.00     0.0140     -11.00     -11.00     0          0
N-C1-C-2         U11-E            U12-N            1057.00    0.0140     -11.00     -11.00     0          0
L31-E-12         U17-S            U16-N            2640.00    0.0140     -3.40      -3.40      0          0
U16              U16-N            U16-S            120.00     0.0140     -6.50      -6.50      0          0
L31-E-11         U16-S            S21-W            2886.00    0          -4.30      -4.30      0          0
U18              U18-N            U18-S            136.00     0.0140     -3.60      -3.60      0          0
L31-E-13         U18-S            U17-N            1624.00    0          -3.70      -3.70      0          0
T-L31W-1-2       L31N-E-1         L31N-E-2         50.00      0.0140     6.00       6.00       0          0
T-L31W2-N1       L31N-E-2         CC1-N-1          50.00      0.0140     7.00       6.50       0          0
T-C1N-C2         C1-N-1           C1-N-2           50.00      0.0140     10.00      7.00       0          0
T-CC1-N1         CC1-N-1          C1-N-1           50.00      0.0140     7.30       7.00       0          0
T-C1N2-N3        C1-N-2           C1-N-3           50.00      0.0140     9.30       9.00       0          0
T-C1N3-N4        C1-N-3           C1-N-4           50.00      0.0140     9.50       9.00       0          0
T-C1N4-N5        C1-N-4           C1-N-5           50.00      0.0140     9.50       9.00       0          0
T-C1S1-2         C1-S-1           C1-S-2           5.00       0.0140     10.00      10.00      0          0
T-CC1S1-S1       CC1-S-1          C1-S-1           50.00      0.0140     8.60       8.50       0          0
T-C1S2-S3        C1-S-2           C1-S-3           50.00      0.0140     8.60       8.50       0          0
T-CC1S3-S2       CC1-S-3          CC1-S-2          50.00      0.0140     8.60       7.00       0          0
T-CC1S2-S1       CC1-S-2          CC1-S-1          50.00      0.0140     8.60       8.50       0          0
T-CC1S4-S3       CC1-S-4          CC1-S-3          50.00      0.0140     9.00       8.90       0          0
T-CC1S1-S7       CC1-S-4          CC1-S-7          50.00      0.0140     10.00      9.00       0          0
T-CC1S7-S9       CC1-S-7          CC1-S-9          50.00      0.0140     8.60       8.50       0          0
T-CC1S3-S6       CC1-S-3          CC1-S-6          50.00      0.0140     9.00       8.50       0          0
T-CC1S6-S8       CC1-S-6          CC1-S-8          50.00      0.0140     9.00       8.50       0          0
T-CC1S7-S6       CC1-S-7          CC1-S-6          50.00      0.0140     9.00       8.50       0          0
T-CC1S6-S5       CC1-S-6          CC1-S-5          50.00      0.0140     9.00       8.50       0          0
T-CC1S5-S2       CC1-S-5          C1-S-2           50.00      0.0140     9.00       8.50       0          0
T-CC1S9-S8       CC1-S-9          CC1-S-8          50.00      0.0140     9.00       8.50       0          0
T-CC1S8-S4       CC1-S-8          C1-S-4           50.00      0.0140     9.00       8.50       0          0
T-CC1S2-S5       CC1-S-2          CC1-S-5          50.00      0.0140     9.00       8.50       0          0
T-CC1S5-S4       CC1-S-5          C1-S-4           50.00      0.0140     9.00       8.50       0          0
T-CC1S8-S5       CC1-S-8          C1-S-5           50.00      0.0140     9.50       7.50       0          0
T-C1S1-S6        C1-S-5           C1-S-6           50.00      0.0140     7.80       7.00       0          0
CC1S9-S10.       CC1-S-9          CC1-S-10         50.00      0.0140     10.50      8.50       0          0
CC1S10C1S7       CC1-S-10         C1-S-7           0          0          0          0          0          0
T-C1S7-S8        C1-S-7           C1-S-8           50.00      0.0140     10.00      9.00       0          0