;; SWMM5 .inp converted from XPSWMM .xp file
;; Generated by XPSWMM Card Reader
;; Source format: XP_CARD | Original title: "COTTONWOOD

[TITLE]
;;Project Title/Notes
"COTTONWOOD

[OPTIONS]
FLOW_UNITS           CFS
INFILTRATION         HORTON
FLOW_ROUTING         DYNWAVE
LINK_OFFSETS         DEPTH
MIN_SLOPE            0.0
ALLOW_PONDING        NO
SKIP_STEADY_STATE    NO
ROUTING_STEP         00:00:20
VARIABLE_STEP        0.75
INERTIAL_DAMPING     NONE
NORMAL_FLOW_LIMITED  BOTH
MAX_TRIALS           30

[JUNCTIONS]
;;Name           Elev       MaxDepth   InitDepth  SurDepth   Aponded
;;-------------- ---------- ---------- ---------- ---------- ----------
11335            5163.91    0          0          0          0
11333            5159.99    0          0          0          0
11319            5153.00    0          0          0          0
11312            5142.50    0          0          0          0
11311            5140.00    0          0          0          0
11274            5132.00    0          0          0          0
11244            5120.00    0          0          0          0
11241            5114.22    0          0          0          0
11236            5104.00    0          0          0          0
11227            5080.34    0          0          0          0
11217            5056.46    0          0          0          0
103103           5034.50    0          0          0          0
10396            5018.57    0          0          0          0
10383            4993.54    0          0          0          0
10382            4988.99    0          0          0          0
10371            4964.00    0          0          0          0
10369            4922.99    0          0          0          0
10368            4886.00    0          0          0          0
10336            4866.00    0          0          0          0
10333            4853.99    0          0          0          0
10262            4847.01    0          0          0          0
10256            4841.97    0          0          0          0
31131            4836.52    0          0          0          0
3113             4829.00    0          0          0          0
3110             4809.96    0          0          0          0
319              4802.68    0          0          0          0
312              4795.40    0          0          0          0
311              4802.68    0          0          0          0
4331             4792.20    0          0          0          0
4330             4789.00    0          0          0          0
4329             4782.20    0          0          0          0
4327             4775.40    0          0          0          0
4324             4773.80    0          0          0          0
448              4772.40    0          0          0          0
447              4771.40    0          0          0          0
445              4769.80    0          0          0          0
444              4769.00    0          0          0          0
443              4741.00    0          0          0          0
441              4728.02    0          0          0          0

[CONDUITS]
;;Name           From             To               Length     Roughness  InOffset   OutOffset  InitFlow   MaxFlow
;;-------------- ---------------- ---------------- ---------- ---------- ---------- ---------- ---------- ----------
11335c           11335            11333            275.00     0.0130     5158.91    5154.99    0          0
11333c           11333            11319            353.00     0.0130     5154.99    5148.00    0          0
11319c           11319            11312            479.00     0.0130     5148.00    5137.50    0          0
11312c           11312            11311            256.00     0.0130     5137.50    5132.00    0          0
11311c           11311            11274            397.00     0.0220     5132.00    5127.00    0          0
11274c           11274            11244            361.00     0.0130     5127.00    5115.00    0          0
11244c           11244            11241            308.00     0.0130     5115.00    5109.22    0          0
11241c           11241            11236            276.00     0.0130     5109.22    5099.00    0          0
11236c           11236            11227            652.00     0.0130     5099.00    5075.34    0          0
11227c           11227            11217            519.00     0.0130     5075.34    5051.46    0          0
11217c           11217            103103           477.00     0.0130     5051.46    5029.50    0          0
103103c          103103           10396            350.00     0.0130     5029.50    5013.57    0          0
10396c           10396            10383            550.00     0.0130     5013.57    4988.54    0          0
10383c           10383            10382            100.00     0.0130     4988.54    4983.99    0          0
10382c           10382            10371            294.00     0.0130     4983.99    4959.00    0          0
10371c           10371            10369            406.00     0.0130     4959.00    4917.99    0          0
10369c           10369            10368            300.00     0.0130     4917.99    4881.00    0          0
10368c           10368            10336            390.00     0.0130     4881.00    4861.00    0          0
10336c           10336            10333            414.00     0.0130     4861.00    4848.99    0          0
10333c           10333            10262            423.00     0.0130     4848.99    4842.01    0          0
10262c           10262            10256            338.00     0.0130     4842.01    4836.97    0          0
10256c           10256            31131            426.00     0.0130     4836.97    4831.52    0          0
31131c           31131            3113             409.00     0.0130     4831.52    4824.00    0          0
3113c            3113             3110             400.00     0.0130     4824.00    4804.96    0          0
3110c            3110             319              400.00     0.0130     4804.96    4797.68    0          0
319c             319              312              400.00     0.0130     4797.68    4790.40    0          0
312c             312              311              39.00      0.0130     4790.40    4790.08    0          0
311c             311              4331             361.00     0.0130     4790.08    4787.20    0          0
4331c            4331             4330             400.00     0.0130     4787.20    4784.00    0          0
4330c            4330             4329             400.00     0.0130     4784.00    4777.20    0          0
4329c            4329             4327             400.00     0.0130     4777.20    4770.40    0          0
4327c            4327             4324             800.00     0.0130     4770.40    4768.80    0          0
4324c            4324             448              700.00     0.0130     4768.80    4767.20    0          0
448c             448              447              500.00     0.0130     4767.20    4766.40    0          0
447c             447              445              800.00     0.0130     4766.40    4764.80    0          0
445c             445              444              400.00     0.0130     4764.80    4764.00    0          0
444c             444              443              400.00     0.0130     4764.00    4736.00    0          0
443c             443              441              164.00     0.0130     4736.00    4723.02    0          0

[XSECTIONS]
;;Link           Shape        Geom1      Geom2      Geom3      Geom4      Barrels
;;-------------- ------------ ---------- ---------- ---------- ---------- ----------
11335c           CIRCULAR     1.00       0          0          0          1
11333c           CIRCULAR     0.83       0          0          0          1
11319c           CIRCULAR     0.83       0          0          0          1
11312c           CIRCULAR     0.83       0          0          0          1
11311c           CIRCULAR     0.83       0          0          0          1
11274c           CIRCULAR     0.83       0          0          0          1
11244c           CIRCULAR     0.83       0          0          0          1
11241c           CIRCULAR     0.83       0          0          0          1
11236c           CIRCULAR     0.83       0          0          0          1
11227c           CIRCULAR     0.83       0          0          0          1
11217c           CIRCULAR     0.83       0          0          0          1
103103c          CIRCULAR     0.83       0          0          0          1
10396c           CIRCULAR     0.83       0          0          0          1
10383c           CIRCULAR     0.66       0          0          0          1
10382c           CIRCULAR     0.66       0          0          0          1
10371c           CIRCULAR     0.66       0          0          0          1
10369c           CIRCULAR     0.66       0          0          0          1
10368c           CIRCULAR     0.83       0          0          0          1
10336c           CIRCULAR     0.83       0          0          0          1
10333c           CIRCULAR     1.00       0          0          0          1
10262c           CIRCULAR     1.00       0          0          0          1
10256c           CIRCULAR     1.00       0          0          0          1
31131c           CIRCULAR     1.00       0          0          0          1
3113c            CIRCULAR     0.83       0          0          0          1
3110c            CIRCULAR     1.00       0          0          0          1
319c             CIRCULAR     1.00       0          0          0          1
312c             CIRCULAR     1.00       0          0          0          1
311c             CIRCULAR     1.00       0          0          0          1
4331c            CIRCULAR     1.00       0          0          0          1
4330c            CIRCULAR     1.00       0          0          0          1
4329c            CIRCULAR     1.25       0          0          0          1
4327c            CIRCULAR     1.25       0          0          0          1
4324c            CIRCULAR     1.25       0          0          0          1
448c             CIRCULAR     1.25       0          0          0          1
447c             CIRCULAR     1.25       0          0          0          1
445c             CIRCULAR     1.25       0          0          0          1
444c             CIRCULAR     0.63       0          0          0          1
443c             CIRCULAR     1.00       0          0          0          1

[LOSSES]
;;Link           Inlet      Outlet     Average    Flap Gate
;;-------------- ---------- ---------- ---------- ----------
11335c           0          0          0          NO
11333c           0          0          0          NO
11319c           0          0          0          NO
11312c           0          0          0          NO
11311c           0          0          0          NO
11274c           0          0          0          NO
11244c           0          0          0          NO
11241c           0          0          0          NO
11236c           0          0          0          NO
11227c           0          0          0          NO
11217c           0          0          0          NO
103103c          0          0          0          NO
10396c           0          0          0          NO
10383c           0          0          0          NO
10382c           0          0          0          NO
10371c           0          0          0          NO
10369c           0          0          0          NO
10368c           0          0          0          NO
10336c           0          0          0          NO
10333c           0          0          0          NO
10262c           0          0          0          NO
10256c           0          0          0          NO
31131c           0          0          0          NO
3113c            0          0          0          NO
3110c            0          0          0          NO
319c             0          0          0          NO
312c             0          0          0          NO
311c             0          0          0          NO
4331c            0          0          0          NO
4330c            0          0          0          NO
4329c            0          0          0          NO
4327c            0          0          0          NO
4324c            0          0          0          NO
448c             0          0          0          NO
447c             0          0          0          NO
445c             0          0          0          NO
444c             0          0          0          NO
443c             0          0          0          NO

[COORDINATES]
;;Node           X-Coord            Y-Coord
;;-------------- ------------------ ------------------
11335            -10707.99          80461.43          
11333            -11162.78          80186.43          
11319            -11277.08          80118.29          
11312            -11554.70          79768.75          
11311            -11586.06          79522.26          
11274            -11477.29          79097.50          
11244            -11389.34          78769.79          
11241            -11309.76          78464.70          
11236            -11222.07          78115.12          
11227            -11054.42          77525.17          
11217            -11059.63          76672.56          
103103           -11059.63          76382.28          
10396            -11054.34          76090.00          
10383            -11056.53          75722.91          
10382            -11076.08          75371.57          
10371            -11081.52          75149.28          
10369            -11269.70          74780.80          
10368            -11569.60          74471.07          
10336            -11783.25          74263.43          
10333            -12007.68          73956.72          
10262            -12141.90          73726.37          
10256            -12348.94          73239.29          
31131            -12421.26          72965.60          
3113             -12445.11          72474.37          
3110             -12445.11          72076.97          
319              -12445.11          71700.84          
312              -12445.11          71251.20          
311              -12445.11          71180.70          
4331             -12437.49          70794.04          
4330             -12437.49          70463.21          
4329             -12437.49          70101.51          
4327             -12437.49          69645.10          
4324             -12437.49          68954.74          
448              -12437.49          68481.48          
447              -12437.49          67628.40          
445              -12437.49          66828.79          
444              -12437.49          66452.31          
443              -12437.49          66049.41          
441              -12480.08          65896.61          

[MAP]
DIMENSIONS -12480.08 65896.61 -10707.99 80461.43
Units      None

[REPORT]
INPUT            YES
SUBCATCHMENTS    ALL
NODES            ALL
LINKS            ALL



