;; SWMM5 .inp converted from XPSWMM .xp file
;; Generated by XPSWMM Card Reader
;; Source format: XP_CARD | Original title: Kannon 1981/10/22

[TITLE]
;;Project Title/Notes
Kannon 1981/10/22

[OPTIONS]
FLOW_UNITS           CMS
INFILTRATION         HORTON
FLOW_ROUTING         DYNWAVE
LINK_OFFSETS         DEPTH
MIN_SLOPE            0.0
ALLOW_PONDING        NO
SKIP_STEADY_STATE    NO
ROUTING_STEP         00:00:10
VARIABLE_STEP        0.75
INERTIAL_DAMPING     PARTIAL
NORMAL_FLOW_LIMITED  BOTH
MAX_TRIALS           100
HEAD_TOLERANCE       .001

[JUNCTIONS]
;;Name           Elev       MaxDepth   InitDepth  SurDepth   Aponded
;;-------------- ---------- ---------- ---------- ---------- ----------
K1.1             11.42      0          0          0          0
K2.1             11.44      0          0          0          0
K3.1             11.31      0          0          0          0
K4.1             11.34      0          0          0          0
K5.1             11.20      0          0          0          0
K6.1             11.36      0          0          0          0
K7.1             11.44      0          0          0          0
K8.1             11.26      0          0          0          0
K9.1             11.26      0          0          0          0
K10.1            11.27      0          0          0          0
K11.1            11.37      0          0          0          0
K12.1            11.35      0          0          0          0
K13.1            11.18      0          0          0          0
K14.1            11.05      0          0          0          0
K15.1            10.88      0          0          0          0
K16.1            10.81      0          0          0          0
K16a.1           10.77      0          0          0          0
K17.1            10.77      0          0          0          0
K18.1            10.68      0          0          0          0
K19.1            10.66      0          0          0          0
K19a.1           10.66      0          0          0          0
K20.1            10.68      0          0          0          0
K21.1            10.56      0          0          0          0
K22.1            10.51      0          0          0          0
K23.1            10.57      0          0          0          0
K24.1            10.65      0          0          0          0
K25.1            10.68      0          0          0          0
K26.1            11.84      0          0          0          0
K27.1            11.60      0          0          0          0
K28.1            10.89      0          0          0          0
K29.1            10.74      0          0          0          0
K30.1            10.57      0          0          0          0
K30a.1           10.18      0          0          0          0
K31.1            10.12      0          0          0          0
Pump.1           10.12      0          0          0          0
K1-1.1           10.86      0          0          0          0
K1-2.1           10.50      0          0          0          0
K1-2a.1          10.45      0          0          0          0
K1-3.1           10.48      0          0          0          0
K1-3a.1          10.48      0          0          0          0
K1-4.1           10.55      0          0          0          0
K1-4a.1          10.42      0          0          0          0
K1-5.1           10.42      0          0          0          0
K1-6.1           10.38      0          0          0          0
K1-7.1           10.41      0          0          0          0
K1-8.1           10.44      0          0          0          0
K2-1.1           10.83      0          0          0          0
K2-2.1           10.62      0          0          0          0
K3-1.1           10.21      0          0          0          0
K3-2.1           10.27      0          0          0          0
K3-3.1           10.56      0          0          0          0
K3-4.1           10.73      0          0          0          0
K3-5.1           10.73      0          0          0          0
K3-6.1           10.84      0          0          0          0
K3-7.1           10.61      0          0          0          0
K4-1.1           10.29      0          0          0          0
K4-2.1           10.46      0          0          0          0
K4-2a.1          10.43      0          0          0          0
K4-3.1           10.63      0          0          0          0
K4-3a.1          10.74      0          0          0          0
K4-3b.1          10.98      0          0          0          0
K4-4.1           10.91      0          0          0          0
K4-5.1           10.29      0          0          0          0
K4-6.1           10.42      0          0          0          0
K5-1.1           10.99      0          0          0          0
K5-2.1           10.60      0          0          0          0
K5-3.1           10.51      0          0          0          0
K5-4.1           10.54      0          0          0          0
1.1              12.45      0          0          0          0
1a.1             12.58      0          0          0          0
1b.1             12.51      0          0          0          0
1c.1             12.33      0          0          0          0
2.1              12.57      0          0          0          0
3.1              12.54      0          0          0          0
4.1              12.44      0          0          0          0
5.1              12.48      0          0          0          0
6.1              12.26      0          0          0          0
9.1              11.79      0          0          0          0
14.1             11.50      0          0          0          0
30.1             11.40      0          0          0          0
33.1             11.43      0          0          0          0
40.1             11.24      0          0          0          0
40a.1            11.39      0          0          0          0
48.1             11.44      0          0          0          0
51.1             11.48      0          0          0          0
68.1             11.74      0          0          0          0
70.1             11.76      0          0          0          0
73.1             11.72      0          0          0          0
77.1             11.56      0          0          0          0
78.1             11.50      0          0          0          0
81.1             11.55      0          0          0          0
84.1             11.42      0          0          0          0
108.1            11.47      0          0          0          0
109.1            11.45      0          0          0          0
111.1            11.53      0          0          0          0
119.1            11.48      0          0          0          0
123.1            11.52      0          0          0          0
127.1            11.52      0          0          0          0
134.1            11.34      0          0          0          0
136.1            11.43      0          0          0          0
140.1            11.29      0          0          0          0
149.1            11.40      0          0          0          0
172.1            11.46      0          0          0          0
172a.1           11.41      0          0          0          0
174.1            11.27      0          0          0          0
179.1            11.32      0          0          0          0
179a.1           11.40      0          0          0          0
179b.1           11.40      0          0          0          0
182.1            11.62      0          0          0          0
182a.1           11.71      0          0          0          0
183.1            11.70      0          0          0          0
194.1            11.69      0          0          0          0
202.1            11.62      0          0          0          0
209.1            11.45      0          0          0          0
214.1            11.41      0          0          0          0
215.1            11.41      0          0          0          0
215a.1           11.14      0          0          0          0
215b.1           11.53      0          0          0          0
216.1            11.47      0          0          0          0
216a.1           11.38      0          0          0          0
216b.1           11.37      0          0          0          0
216c.1           11.37      0          0          0          0
228.1            11.10      0          0          0          0
230.1            11.15      0          0          0          0
230a.1           11.14      0          0          0          0
230b.1           11.23      0          0          0          0
241.1            11.22      0          0          0          0
245.1            11.27      0          0          0          0
300.1            11.11      0          0          0          0
301.1            11.24      0          0          0          0
303.1            11.42      0          0          0          0
305.1            11.42      0          0          0          0
307.1            11.20      0          0          0          0
309.1            11.39      0          0          0          0
313.1            11.13      0          0          0          0
316.1            11.09      0          0          0          0
318.1            11.10      0          0          0          0
321.1            11.17      0          0          0          0
323.1            11.15      0          0          0          0
323a.1           11.07      0          0          0          0
327.1            11.07      0          0          0          0
352.1            11.25      0          0          0          0
359.1            11.21      0          0          0          0
363.1            11.03      0          0          0          0
365.1            11.09      0          0          0          0
371.1            10.99      0          0          0          0
377.1            10.86      0          0          0          0
378.1            11.23      0          0          0          0
398.1            11.12      0          0          0          0
400.1            11.26      0          0          0          0
402.1            11.28      0          0          0          0
404.1            11.24      0          0          0          0
407.1            11.15      0          0          0          0
409.1            11.36      0          0          0          0
412.1            11.29      0          0          0          0
420.1            10.94      0          0          0          0
422.1            10.86      0          0          0          0
427.1            10.77      0          0          0          0
433.1            10.73      0          0          0          0
440.1            10.77      0          0          0          0
453.1            10.38      0          0          0          0
454.1            10.66      0          0          0          0
456.1            10.59      0          0          0          0
458.1            10.72      0          0          0          0
458a.1           10.63      0          0          0          0
459.1            10.59      0          0          0          0
461.1            10.50      0          0          0          0
463.1            10.55      0          0          0          0
465.1            10.49      0          0          0          0
472.1            10.46      0          0          0          0
487.1            10.37      0          0          0          0
499.1            10.38      0          0          0          0
509.1            10.63      0          0          0          0
511.1            10.49      0          0          0          0
514.1            10.43      0          0          0          0
520.1            10.26      0          0          0          0
521.1            10.26      0          0          0          0
523.1            10.22      0          0          0          0
524.1            10.37      0          0          0          0
532.1            10.33      0          0          0          0
534.1            10.37      0          0          0          0
536.1            10.21      0          0          0          0
546.1            10.46      0          0          0          0
548.1            10.34      0          0          0          0
550.1            10.33      0          0          0          0
551.1            10.50      0          0          0          0
552.1            10.42      0          0          0          0
553.1            10.39      0          0          0          0
559.1            10.52      0          0          0          0
562.1            10.53      0          0          0          0
573.1            10.56      0          0          0          0
575.1            10.58      0          0          0          0
577.1            10.62      0          0          0          0
582.1            10.51      0          0          0          0
587.1            10.48      0          0          0          0
587a.1           10.65      0          0          0          0
587b.1           10.67      0          0          0          0
594.1            10.84      0          0          0          0
610.1            10.52      0          0          0          0
620.1            10.42      0          0          0          0
624.1            10.34      0          0          0          0
625.1            10.29      0          0          0          0
628.1            10.30      0          0          0          0
629.1            10.26      0          0          0          0
629a.1           10.19      0          0          0          0
632.1            10.38      0          0          0          0
634.1            10.44      0          0          0          0
640.1            10.37      0          0          0          0
651.1            10.29      0          0          0          0
654.1            10.35      0          0          0          0
655.1            10.39      0          0          0          0
662.1            10.33      0          0          0          0
662a.1           10.31      0          0          0          0
662b.1           10.18      0          0          0          0
686.1            10.73      0          0          0          0
689.1            10.47      0          0          0          0
704.1            10.77      0          0          0          0
707.1            10.65      0          0          0          0
710.1            10.52      0          0          0          0
711.1            10.59      0          0          0          0
713.1            10.53      0          0          0          0
714.1            10.61      0          0          0          0
716.1            10.56      0          0          0          0
722.1            10.62      0          0          0          0
726.1            10.49      0          0          0          0
728.1            9.97       0          0          0          0
740.1            9.91       0          0          0          0
742.1            9.85       0          0          0          0
743.1            9.80       0          0          0          0
743a.1           9.97       0          0          0          0
757.1            9.95       0          0          0          0
759.1            9.95       0          0          0          0
760.1            10.07      0          0          0          0
760a.1           10.31      0          0          0          0
772.1            10.38      0          0          0          0
774.1            10.08      0          0          0          0
783.1            10.10      0          0          0          0
783a.1           10.09      0          0          0          0
783b.1           10.09      0          0          0          0
784.1            10.20      0          0          0          0
791.1            10.46      0          0          0          0
793.1            10.41      0          0          0          0
807.1            10.97      0          0          0          0
808.1            10.89      0          0          0          0
809.1            10.07      0          0          0          0
811.1            11.03      0          0          0          0
814.1            11.01      0          0          0          0
823.1            11.00      0          0          0          0
828.1            11.08      0          0          0          0
829.1            11.01      0          0          0          0
845.1            11.40      0          0          0          0
848.1            11.15      0          0          0          0
852.1            11.27      0          0          0          0
854.1            11.03      0          0          0          0
856.1            11.02      0          0          0          0
858.1            11.01      0          0          0          0
869.1            11.05      0          0          0          0
876.1            11.05      0          0          0          0
878.1            10.96      0          0          0          0
895.1            10.82      0          0          0          0
895a.1           10.40      0          0          0          0
895b.1           10.49      0          0          0          0
899.1            10.40      0          0          0          0
901.1            10.21      0          0          0          0
905.1            10.39      0          0          0          0
905a.1           10.68      0          0          0          0
905b.1           10.69      0          0          0          0
912.1            11.10      0          0          0          0
913.1            10.97      0          0          0          0
914.1            10.90      0          0          0          0
915.1            10.92      0          0          0          0
915a.1           10.99      0          0          0          0
919.1            11.38      0          0          0          0
929.1            11.31      0          0          0          0
931.1            11.18      0          0          0          0
932.1            11.53      0          0          0          0
943.1            11.44      0          0          0          0
943a.1           11.44      0          0          0          0
947.1            11.25      0          0          0          0
960.1            10.74      0          0          0          0
960a.1           10.56      0          0          0          0
982.1            10.18      0          0          0          0
997.1            10.65      0          0          0          0
1005.1           10.67      0          0          0          0
1006.1           10.55      0          0          0          0
1012.1           10.31      0          0          0          0
1012a.1          10.07      0          0          0          0
1013.1           10.34      0          0          0          0
1014.1           10.22      0          0          0          0
1016.1           10.44      0          0          0          0
1018.1           10.31      0          0          0          0
1020.1           10.32      0          0          0          0
1024.1           10.72      0          0          0          0
1025.1           10.63      0          0          0          0
1026.1           10.56      0          0          0          0
1043.1           11.73      0          0          0          0
1044.1           10.80      0          0          0          0
1046.1           10.84      0          0          0          0
1047.1           10.78      0          0          0          0
1052.1           10.53      0          0          0          0
1053.1           10.43      0          0          0          0
1054.1           10.40      0          0          0          0
1056.1           10.50      0          0          0          0
1061.1           10.41      0          0          0          0
1065.1           10.39      0          0          0          0
1070.1           10.37      0          0          0          0
OUT.1            12.00      0          0          0          0
OUT.2            12.00      0          0          0          0
619              12.00      0          0          0          0
621              12.00      0          0          0          0
masu             10.12      0          0          0          0

[CONDUITS]
;;Name           From             To               Length     Roughness  InOffset   OutOffset  InitFlow   MaxFlow
;;-------------- ---------------- ---------------- ---------- ---------- ---------- ---------- ---------- ----------
1                1.1              1a.1             48.62      0.0130     11.02      11.01      0          0
1a               1a.1             1b.1             48.53      0.0130     11.01      10.81      0          0
1b               1b.1             1c.1             38.17      0.0130     10.83      10.84      0          0
1c               1c.1             2.1              46.88      0.0130     10.84      10.99      0          0
2                2.1              3.1              46.80      0.0130     10.99      11.05      0          0
3                3.1              4.1              48.00      0.0130     11.25      11.38      0          0
4                4.1              5.1              94.85      0.0130     11.43      11.27      0          0
5                5.1              6.1              54.65      0.0130     11.27      10.63      0          0
6                6.1              9.1              69.05      0.0130     10.54      10.33      0          0
9                9.1              14.1             144.05     0.0130     10.09      9.76       0          0
14               14.1             30.1             45.05      0.0130     9.06       9.00       0          0
30               30.1             33.1             60.10      0.0130     8.61       8.56       0          0
33               33.1             78.1             68.22      0.0130     8.59       8.45       0          0
68               68.1             70.1             47.80      0.0130     9.45       9.35       0          0
70               70.1             73.1             71.95      0.0130     9.35       9.14       0          0
73               73.1             77.1             73.70      0.0130     9.01       8.84       0          0
77               77.1             78.1             47.79      0.0130     8.87       8.85       0          0
40               40.1             40a.1            96.60      0.0130     9.02       8.94       0          0
40a              40a.1            48.1             35.10      0.0130     8.94       8.87       0          0
48               48.1             51.1             31.15      0.0130     8.87       8.85       0          0
51               51.1             78.1             51.20      0.0130     8.81       8.71       0          0
78               78.1             81.1             10.98      0.0130     8.45       8.51       0          0
81               81.1             84.1             74.15      0.0130     8.51       8.37       0          0
84               84.1             K1.1             143.03     0.0130     8.37       8.36       0          0
K1               K1.1             K2.1             95.13      0.0130     8.36       8.26       0          0
108              108.1            109.1            46.45      0.0130     9.83       9.54       0          0
109              109.1            111.1            47.85      0.0130     9.15       9.11       0          0
111              111.1            119.1            42.86      0.0130     9.11       9.05       0          0
119              119.1            123.1            52.29      0.0130     9.05       8.97       0          0
123              123.1            127.1            67.61      0.0130     8.97       8.85       0          0
127              127.1            K2.1             60.78      0.0130     8.65       8.57       0          0
K2               K2.1             K3.1             117.20     0.0130     8.26       8.15       0          0
134              134.1            136.1            55.24      0.0130     9.44       9.34       0          0
136              136.1            140.1            49.53      0.0130     9.15       9.13       0          0
140              140.1            149.1            77.34      0.0130     9.10       9.00       0          0
149              149.1            K3.1             62.36      0.0130     8.70       8.64       0          0
K3               K3.1             K4.1             75.03      0.0130     8.14       8.09       0          0
K4               K4.1             K5.1             48.41      0.0130     8.09       8.11       0          0
K5               K5.1             K6.1             43.20      0.0130     8.11       8.05       0          0
K6               K6.1             K7.1             35.95      0.0130     8.05       8.03       0          0
K7               K7.1             K8.1             100.48     0.0130     8.03       7.96       0          0
182              182.1            182a.1           48.88      0.0130     9.67       9.54       0          0
182a             182a.1           183.1            34.62      0.0130     9.54       9.50       0          0
183              183.1            194.1            63.68      0.0130     9.50       9.37       0          0
194              194.1            202.1            42.75      0.0130     9.37       9.30       0          0
202              202.1            209.1            32.37      0.0130     9.11       9.04       0          0
209              209.1            215.1            23.20      0.0130     9.04       9.04       0          0
214              214.1            215.1            79.60      0.0130     9.23       9.00       0          0
172              172.1            172a.1           49.15      0.0130     10.26      9.98       0          0
172a             172a.1           174.1            68.87      0.0130     9.98       9.52       0          0
174              174.1            179.1            50.75      0.0130     9.49       9.31       0          0
179              179.1            179a.1           38.27      0.0130     9.19       9.14       0          0
179a             179a.1           179b.1           48.51      0.0130     9.07       9.00       0          0
179b             179b.1           215.1            67.50      0.0130     8.94       8.88       0          0
215              215.1            215a.1           49.42      0.0130     8.79       8.72       0          0
215a             215a.1           215b.1           61.25      0.0130     8.72       8.66       0          0
215b             215b.1           216.1            42.00      0.0130     8.66       8.62       0          0
216              216.1            216a.1           53.10      0.0130     8.62       8.57       0          0
216a             216a.1           216b.1           33.22      0.0130     8.57       8.51       0          0
216b             216b.1           216c.1           45.05      0.0130     8.51       8.46       0          0
216c             216c.1           K8.1             46.45      0.0130     8.46       8.44       0          0
K8               K8.1             K9.1             4.70       0.0130     7.96       7.95       0          0
228              228.1            230.1            68.48      0.0130     8.78       8.60       0          0
230              230.1            230a.1           6.51       0.0130     8.60       8.56       0          0
230a             230a.1           230b.1           111.92     0.0130     8.56       8.37       0          0
230b             230b.1           K9.1             7.17       0.0130     8.37       8.31       0          0
K9               K9.1             K10.1            32.03      0.0130     7.95       7.91       0          0
K10              K10.1            K11.1            34.67      0.0130     7.91       7.82       0          0
241              241.1            245.1            83.79      0.0130     8.76       8.62       0          0
245              245.1            K11.1            146.82     0.0130     8.57       8.25       0          0
K11              K11.1            K12.1            25.10      0.0130     7.82       7.83       0          0
K12              K12.1            K13.1            42.99      0.0130     7.83       7.81       0          0
K13              K13.1            K14.1            33.34      0.0130     7.81       7.68       0          0
K14              K14.1            K15.1            66.64      0.0130     7.68       7.64       0          0
K15              K15.1            K16.1            95.67      0.0130     7.64       7.69       0          0
K16              K16.1            K16a.1           92.91      0.0130     7.69       7.65       0          0
K16a             K16a.1           K17.1            6.80       0.0130     7.65       7.64       0          0
K17              K17.1            K18.1            53.41      0.0130     7.64       7.60       0          0
K18              K18.1            K19.1            71.08      0.0130     7.60       7.49       0          0
K19              K19.1            K19a.1           4.50       0.0130     7.49       7.48       0          0
K19a             K19a.1           K20.1            7.88       0.0130     7.48       7.42       0          0
454              454.1            456.1            37.94      0.0130     9.51       9.33       0          0
456              456.1            458.1            58.90      0.0130     9.32       9.17       0          0
458              458.1            458a.1           38.58      0.0130     9.17       8.96       0          0
458a             458a.1           459.1            33.86      0.0130     8.96       8.92       0          0
459              459.1            461.1            34.94      0.0130     8.92       8.87       0          0
461              461.1            463.1            75.63      0.0130     8.87       8.74       0          0