;; SWMM5 .inp converted from XPSWMM .xp file
;; Generated by XPSWMM Card Reader
;; Source format: XP_CARD | Original title: CITY OF NEPEAN; LYNWOOD PROJECT: STORM SEWER SYSTEM SIMULATION-EXTRAN

[TITLE]
;;Project Title/Notes
CITY OF NEPEAN; LYNWOOD PROJECT: STORM SEWER SYSTEM SIMULATION-EXTRAN

[OPTIONS]
FLOW_UNITS           CMS
INFILTRATION         HORTON
FLOW_ROUTING         DYNWAVE
LINK_OFFSETS         DEPTH
MIN_SLOPE            0.0
ALLOW_PONDING        NO
SKIP_STEADY_STATE    NO
ROUTING_STEP         00:00:03
VARIABLE_STEP        0.75
INERTIAL_DAMPING     NONE
NORMAL_FLOW_LIMITED  BOTH
MAX_TRIALS           30

[JUNCTIONS]
;;Name           Elev       MaxDepth   InitDepth  SurDepth   Aponded
;;-------------- ---------- ---------- ---------- ---------- ----------
999              94.90      0          0          0          0
7201             94.75      0          0          0          0
7191             94.60      0          0          0          0
7181             94.60      0          0          0          0
7171             94.62      0          0          0          0
7161             94.87      0          0          0          0
7151             94.70      0          0          0          0
7141             94.24      0          0          0          0
7131             94.50      0          0          0          0
7121             94.82      0          0          0          0
7111             94.86      0          0          0          0
71               93.60      0          0          0          0
61               93.80      0          0          0          0
51               92.70      0          0          0          0
41               90.40      0          0          0          0
31               89.15      0          0          0          0
21               88.75      0          0          0          0
211              88.60      0          0          0          0
421              93.75      0          0          0          0
420              92.35      0          0          0          0
505              92.45      0          0          0          0
506              91.15      0          0          0          0
507              92.80      0          0          0          0
135              93.35      0          0          0          0
131              91.80      0          0          0          0
141              92.40      0          0          0          0
134              91.80      0          0          0          0
920              92.40      0          0          0          0
121              90.80      0          0          0          0
111              89.35      0          0          0          0
1110             89.35      0          0          0          0
7110             93.60      0          0          0          0
502              94.10      0          0          0          0
900              93.80      0          0          0          0
906              93.55      0          0          0          0
908              92.00      0          0          0          0
291              89.00      0          0          0          0
281              89.00      0          0          0          0
300              89.60      0          0          0          0
902              93.80      0          0          0          0
904              93.55      0          0          0          0
918              92.60      0          0          0          0
601              92.00      0          0          0          0
591              91.90      0          0          0          0
581              91.80      0          0          0          0
571              91.70      0          0          0          0
331              91.60      0          0          0          0
327              89.80      0          0          0          0
321              89.70      0          0          0          0
311              89.70      0          0          0          0
301              89.60      0          0          0          0
3110             89.70      0          0          0          0
285              89.00      0          0          0          0
325              91.70      0          0          0          0
315              89.60      0          0          0          0
295              89.00      0          0          0          0
255              88.80      0          0          0          0
245              88.50      0          0          0          0
227              88.40      0          0          0          0
229              88.45      0          0          0          0
233              88.45      0          0          0          0
241              88.50      0          0          0          0
251              88.70      0          0          0          0
271              88.70      0          0          0          0
261              88.60      0          0          0          0
205              88.60      0          0          0          0
215              88.60      0          0          0          0
217              88.60      0          0          0          0
225              88.60      0          0          0          0
231              88.60      0          0          0          0
235              88.50      0          0          0          0
2451             88.50      0          0          0          0
2452             88.50      0          0          0          0
2453             88.50      0          0          0          0
2450             88.75      0          0          0          0
6121             86.00      0          0          0          0
6122             86.00      0          0          0          0

[STORAGE]
;;Name           Elev       MaxDepth   InitDepth  Shape      Curve/Params
;;-------------- ---------- ---------- ---------- ---------- ----------
504              93.20      -2.86      0          FUNCTIONAL 5.00 0          0
912              92.20      -2.16      0          FUNCTIONAL 4.80 0          0
916              92.60      -3.42      0          FUNCTIONAL 5.00 0          0

[CONDUITS]
;;Name           From             To               Length     Roughness  InOffset   OutOffset  InitFlow   MaxFlow
;;-------------- ---------------- ---------------- ---------- ---------- ---------- ---------- ---------- ----------
999              999              7201             60.00      0.0130     92.31      92.25      0          0
7201             7201             7191             85.10      0.0130     92.21      92.19      0          0
7191             7191             7181             32.50      0.0130     92.19      92.02      0          0
7181             7181             7171             25.60      0.0130     92.02      92.09      0          0
7171             7171             7161             102.00     0.0130     92.09      91.80      0          0
7161             7161             7151             37.00      0.0130     91.76      91.59      0          0
7151             7151             7141             25.00      0.0130     91.52      91.54      0          0
7141             7141             7131             95.00      0.0130     91.54      91.23      0          0
7131             7131             7121             32.00      0.0130     91.23      91.01      0          0
7121             7121             7111             23.00      0.0130     91.00      90.88      0          0
7111             7111             71               68.00      0.0130     90.86      90.65      0          0
71               71               61               50.00      0.0130     90.04      89.71      0          0
61               61               51               74.00      0.0130     89.69      89.04      0          0
51               51               41               92.00      0.0130     88.96      87.85      0          0
41               41               31               77.00      0.0130     87.89      86.30      0          0
31               31               21               43.00      0.0130     86.20      86.08      0          0
21               21               211              91.00      0.0130     86.11      85.75      0          0
421              421              420              68.00      0.0130     89.75      89.51      0          0
420              420              51               145.00     0.0130     89.45      89.09      0          0
504              504              505              84.00      0.0130     90.04      89.20      0          0
505              505              506              79.00      0.0130     88.81      88.18      0          0
507              507              506              84.00      0.0130     89.45      88.30      0          0
506              506              41               83.00      0.0130     88.12      87.91      0          0
135              135              131              136.00     0.0130     89.50      87.29      0          0
141              141              134              73.00      0.0130     86.96      86.63      0          0
1410             141              920              10.00      0.0130     86.96      86.78      0          0
134              134              131              10.00      0.0130     86.63      86.59      0          0
131              131              121              62.00      0.0130     86.50      86.47      0          0
121              121              111              81.00      0.0130     86.37      86.33      0          0
111              111              1110             78.00      0.0130     86.29      86.27      0          0
1110             1110             31               10.00      0.0130     86.27      86.27      0          0
7110             7110             502              108.00     0.0130     90.70      90.25      0          0
502              502              900              124.50     0.0130     90.19      89.56      0          0
900              900              906              94.00      0.0130     89.50      88.90      0          0
906              906              908              64.00      0.0130     88.84      88.20      0          0
908              908              920              88.00      0.0130     88.14      87.56      0          0
920              920              291              130.00     0.0130     86.78      86.52      0          0
291              291              281              14.00      0.0130     86.62      86.53      0          0
400              291              300              10.00      0.0130     86.52      86.31      0          0
902              902              904              60.00      0.0130     90.80      90.50      0          0
904              904              906              65.00      0.0130     90.40      89.63      0          0
912              912              908              97.00      0.0130     89.74      88.45      0          0
916              916              918              95.00      0.0130     88.88      88.50      0          0
918              918              920              104.00     0.0130     88.47      87.80      0          0
601              601              591              69.00      0.0130     90.03      89.81      0          0
591              591              581              77.00      0.0130     89.81      89.64      0          0
581              581              571              31.00      0.0130     89.66      89.51      0          0
571              571              331              16.00      0.0130     89.06      88.95      0          0
331              331              327              57.00      0.0130     88.94      88.57      0          0
327              327              321              86.00      0.0130     88.19      87.52      0          0
321              321              311              49.00      0.0130     87.52      87.14      0          0
311              311              301              58.00      0.0130     87.14      86.90      0          0
3110             3110             301              170.00     0.0130     87.79      87.11      0          0
301              301              300              63.00      0.0130     86.81      86.47      0          0
300              300              281              20.00      0.0130     86.16      86.11      0          0
281              281              285              15.00      0.0130     86.11      85.96      0          0
325              325              315              42.00      0.0130     88.58      87.29      0          0
315              315              295              105.00     0.0130     87.08      86.63      0          0
295              295              285              38.00      0.0130     86.63      86.47      0          0
285              285              255              50.00      0.0130     85.81      85.31      0          0
255              255              245              66.00      0.0130     85.25      84.59      0          0
211              211              227              48.00      0.0130     85.72      85.61      0          0
227              227              229              17.00      0.0130     85.56      85.50      0          0
229              229              233              33.00      0.0130     85.50      85.38      0          0
233              233              241              38.00      0.0130     85.38      85.24      0          0
241              241              251              37.00      0.0130     85.26      85.22      0          0
271              271              261              41.00      0.0130     86.41      86.29      0          0
261              261              251              45.00      0.0130     86.32      86.11      0          0
251              251              245              16.00      0.0130     84.95      84.86      0          0
205              205              215              21.50      0.0130     86.14      86.06      0          0
215              215              217              12.50      0.0130     86.01      85.96      0          0
217              217              225              46.00      0.0130     85.96      85.80      0          0
225              225              231              43.00      0.0130     85.72      85.54      0          0
231              231              235              42.00      0.0130     85.54      85.39      0          0
235              235              245              35.00      0.0130     85.38      85.18      0          0
245              245              2451             45.00      0.0130     84.44      84.28      0          0
2451             2451             2452             45.00      0.0130     84.28      84.11      0          0
2452             2452             2453             120.00     0.0130     84.07      83.78      0          0
2450             2453             2450             120.00     0.0130     83.78      83.49      0          0
2453             2450             6121             29.00      0.0130     83.49      83.42      0          0
6121             6121             6122             18.00      0.0130     83.42      83.23      0          0

[XSECTIONS]
;;Link           Shape        Geom1      Geom2      Geom3      Geom4      Barrels
;;-------------- ------------ ---------- ---------- ---------- ---------- ----------
999              CIRCULAR     0.75       0          0          0          1
7201             CIRCULAR     0.75       0          0          0          1
7191             CIRCULAR     0.75       0          0          0          1
7181             CIRCULAR     0.75       0          0          0          1
7171             CIRCULAR     0.75       0          0          0          1
7161             CIRCULAR     0.75       0          0          0          1
7151             CIRCULAR     0.75       0          0          0          1
7141             CIRCULAR     0.75       0          0          0          1
7131             CIRCULAR     0.75       0          0          0          1
7121             CIRCULAR     0.75       0          0          0          1
7111             CIRCULAR     0.75       0          0          0          1
71               CIRCULAR     0.75       0          0          0          1
61               CIRCULAR     0.90       0          0          0          1
51               CIRCULAR     0.90       0          0          0          1
41               CIRCULAR     0.90       0          0          0          1
31               CIRCULAR     0.90       0          0          0          1
21               CIRCULAR     0.90       0          0          0          1
421              CIRCULAR     0.30       0          0          0          1
420              CIRCULAR     0.38       0          0          0          1
504              CIRCULAR     0.30       0          0          0          1
505              CIRCULAR     0.30       0          0          0          1
507              CIRCULAR     0.30       0          0          0          1
506              CIRCULAR     0.38       0          0          0          1
135              CIRCULAR     0.30       0          0          0          1
141              CIRCULAR     0.60       0          0          0          1
1410             CIRCULAR     0.60       0          0          0          1
134              CIRCULAR     0.60       0          0          0          1
131              CIRCULAR     0.60       0          0          0          1
121              CIRCULAR     0.60       0          0          0          1
111              CIRCULAR     0.60       0          0          0          1
1110             CIRCULAR     0.60       0          0          0          1
7110             CIRCULAR     0.30       0          0          0          1
502              CIRCULAR     0.38       0          0          0          1
900              CIRCULAR     0.38       0          0          0          1
906              CIRCULAR     0.45       0          0          0          1
908              CIRCULAR     0.53       0          0          0          1
920              CIRCULAR     0.53       0          0          0          1
291              CIRCULAR     0.45       0          0          0          1
400              CIRCULAR     0.60       0          0          0          1
902              CIRCULAR     0.30       0          0          0          1
904              CIRCULAR     0.30       0          0          0          1
912              CIRCULAR     0.30       0          0          0          1
916              CIRCULAR     0.30       0          0          0          1
918              CIRCULAR     0.38       0          0          0          1
601              CIRCULAR     0.30       0          0          0          1
591              CIRCULAR     0.30       0          0          0          1
581              CIRCULAR     0.30       0          0          0          1
571              CIRCULAR     0.30       0          0          0          1
331              CIRCULAR     0.30       0          0          0          1
327              CIRCULAR     0.30       0          0          0          1
321              CIRCULAR     0.45       0          0          0          1
311              CIRCULAR     0.45       0          0          0          1
3110             CIRCULAR     0.30       0          0          0          1
301              CIRCULAR     0.60       0          0          0          1
300              CIRCULAR     0.75       0          0          0          1
281              CIRCULAR     0.75       0          0          0          1
325              CIRCULAR     0.30       0          0          0          1
315              CIRCULAR     0.38       0          0          0          1
295              CIRCULAR     0.38       0          0          0          1
285              CIRCULAR     0.75       0          0          0          1
255              CIRCULAR     0.75       0          0          0          1
211              CIRCULAR     0.90       0          0          0          1
227              CIRCULAR     0.90       0          0          0          1
229              CIRCULAR     0.90       0          0          0          1
233              CIRCULAR     0.90       0          0          0          1
241              CIRCULAR     0.90       0          0          0          1
271              CIRCULAR     0.30       0          0          0          1
261              CIRCULAR     0.30       0          0          0          1
251              CIRCULAR     0.90       0          0          0          1
205              CIRCULAR     0.25       0          0          0          1
215              CIRCULAR     0.30       0          0          0          1
217              CIRCULAR     0.30       0          0          0          1
225              CIRCULAR     0.38       0          0          0          1
231              CIRCULAR     0.38       0          0          0          1
235              CIRCULAR     0.38       0          0          0          1
245              CIRCULAR     1.05       0          0          0          1
2451             CIRCULAR     1.35       0          0          0          1
2452             CIRCULAR     1.35       0          0          0          1
2450             CIRCULAR     1.35       0          0          0          1
2453             CIRCULAR     1.35       0          0          0          1
6121             CIRCULAR     1.35       0          0          0          1

[LOSSES]
;;Link           Inlet      Outlet     Average    Flap Gate
;;-------------- ---------- ---------- ---------- ----------
999              0          0          0          NO
7201             0          0          0          NO
7191             0          0          0          NO
7181             0          0          0          NO
7171             0          0          0          NO
7161             0          0          0          NO
7151             0          0          0          NO
7141             0          0          0          NO
7131             0          0          0          NO
7121             0          0          0          NO
7111             0          0          0          NO
71               0          0          0          NO
61               0          0          0          NO
51               0          0          0          NO
41               0          0          0          NO
31               0          0          0          NO
21               0          0          0          NO
421              0          0          0          NO
420              0          0          0          NO
504              0          0          0          NO
505              0          0          0          NO
507              0          0          0          NO
506              0          0          0          NO
135              0          0          0          NO
141              0          0          0          NO
1410             0          0          0          NO
134              0          0          0          NO
131              0          0          0          NO
121              0          0          0          NO
111              0          0          0          NO
1110             0          0          0          NO
7110             0          0          0          NO
502              0          0          0          NO
900              0          0          0          NO
906              0          0          0          NO
908              0          0          0          NO
920              0          0          0          NO
291              0          0          0          NO
400              0          0          0          NO
902              0          0          0          NO
904              0          0          0          NO
912              0          0          0          NO
916              0          0          0          NO
918              0          0          0          NO
601              0          0          0          NO
591              0          0          0          NO
581              0          0          0          NO
571              0          0          0          NO
331              0          0          0          NO
327              0          0          0          NO
321              0          0          0          NO
311              0          0          0          NO
3110             0          0          0          NO
301              0          0          0          NO
300              0          0          0          NO
281              0          0          0          NO
325              0          0          0          NO
315              0          0          0          NO
295              0          0          0          NO
285              0          0          0          NO
255              0          0          0          NO
211              0          0          0          NO
227              0          0          0          NO
229              0          0          0          NO
233              0          0          0          NO
241              0          0          0          NO
271              0          0          0          NO
261              0          0          0          NO
251              0          0          0          NO
205              0          0          0          NO
215              0          0          0          NO
217              0          0          0          NO
225              0          0          0          NO
231              0          0          0          NO
235              0          0          0          NO
245              0          0          0          NO
2451             0          0          0          NO
2452             0          0          0          NO
2450             0          0          0          NO
2453             0          0          0          NO
6121             0          0          0          NO

[COORDINATES]
;;Node           X-Coord            Y-Coord
;;-------------- ------------------ ------------------
999              336.80             -8.94             
7201             356.80             -8.94             
7191             376.80             -8.94             
7181             396.80             -8.94             
7171             416.80             -8.94             
7161             436.80             -8.94             
7151             456.80             -8.94             
7141             476.80             -8.94             
7131             496.80             -8.94             
7121             516.80             -8.94             
7111             536.80             -8.94             
71               556.80             -8.94             
61               576.80             -8.94             
51               596.80             -8.94             
41               616.80             -8.94             
31               800.42             122.85            
21               495.56             -0.05             
211              504.01             18.08             
421              596.80             31.06             
420              596.80             11.06             
504              630.49             -66.53            
505              623.64             -47.73            
506              616.80             -28.94            
507              609.96             -47.73            
135              629.96             89.85             
131              720.42             122.85            
141              650.49             108.65            
134              700.42             122.85            
920              434.27             80.05             
121              740.42             122.85            
111              760.42             122.85            
1110             780.42             122.85            
7110             334.27             80.05             
502              354.27             80.05             
900              374.27             80.05             
906              394.27             80.05             
908              414.27             80.05             
291              434.27             100.05            
281              492.99             66.79             
300              474.19             73.63             
902              394.27             40.05             
904              394.27             60.05             
912              414.27             100.05            
916              405.98             51.77             
918              420.12             65.91             
601              615.56             183.32            
591              600.23             170.46            
581              584.91             157.61            
571              569.59             144.75            
331              554.27             131.89            
327              538.95             119.04            
321              523.63             106.18            
311              508.31             93.33             
301              492.99             80.47             
3110             512.99             80.47             
285              520.42             122.85            
325              540.42             122.85            
315              520.42             122.85            
295              500.42             122.85            
255              540.42             122.85            
245              560.42             122.85            
227              512.46             36.21             
229              520.92             54.33             
233              529.37             72.46             
241              537.82             90.58             
251              546.27             108.71            
271              510.02             91.81             
261              528.15             100.26            
205              560.42             242.85            
215              560.42             222.85            
217              560.42             202.85            
225              560.42             182.85            
231              560.42             162.85            
235              560.42             142.85            