;; SWMM5 .inp converted from XPSWMM .xp file
;; Generated by XPSWMM Card Reader
;; Source format: XP_CARD | Original title: Basin 2E for St. John the Baptist Parish Drainage Master Plan

[TITLE]
;;Project Title/Notes
Basin 2E for St. John the Baptist Parish Drainage Master Plan

[OPTIONS]
FLOW_UNITS           CFS
INFILTRATION         HORTON
FLOW_ROUTING         DYNWAVE
LINK_OFFSETS         DEPTH
MIN_SLOPE            0.0
ALLOW_PONDING        NO
SKIP_STEADY_STATE    NO
ROUTING_STEP         00:00:30
VARIABLE_STEP        0.75
INERTIAL_DAMPING     PARTIAL
NORMAL_FLOW_LIMITED  BOTH
MAX_TRIALS           100
HEAD_TOLERANCE       0.0033

[JUNCTIONS]
;;Name           Elev       MaxDepth   InitDepth  SurDepth   Aponded
;;-------------- ---------- ---------- ---------- ---------- ----------
3                11.50      0          0          0          0
5                11.65      0          0          0          0
7                8.75       0          0          0          0
8                8.71       0          0          0          0
11               7.10       0          0          0          0
13               7.10       0          0          0          0
15               7.10       0          0          0          0
17               6.60       0          0          0          0
18               6.60       0          0          0          0
20               6.40       0          0          0          0
22               6.00       0          0          0          0
23               6.30       0          0          0          0
26               5.80       0          0          0          0
28               5.70       0          0          0          0
30               4.70       0          0          0          0
32               4.50       0          0          0          0
34               7.50       0          0          0          0
35               7.30       0          0          0          0
37               7.30       0          0          0          0
40               7.40       0          0          0          0
42               7.40       0          0          0          0
44               7.00       0          0          0          0
46               7.20       0          0          0          0
48               6.80       0          0          0          0
50               6.80       0          0          0          0
52               6.80       0          0          0          0
55               6.40       0          0          0          0
56               6.40       0          0          0          0
59               5.70       0          0          0          0
60               5.70       0          0          0          0
63               4.60       0          0          0          0
64               4.50       0          0          0          0
67               3.90       0          0          0          0
69               3.90       0          0          0          0
71               7.60       0          0          0          0
72               7.50       0          0          0          0
74               7.30       0          0          0          0
78               7.30       0          0          0          0
80               7.20       0          0          0          0
82               7.10       0          0          0          0
83               6.90       0          0          0          0
86               7.10       0          0          0          0
89               4.40       0          0          0          0
91               4.30       0          0          0          0
93               3.70       0          0          0          0
95               3.60       0          0          0          0
97               3.70       0          0          0          0
98               3.60       0          0          0          0
100              3.60       0          0          0          0
103              3.80       0          0          0          0
105              3.80       0          0          0          0
109              16.50      0          0          0          0
110              16.25      0          0          0          0
112              10.60      0          0          0          0
113              10.50      0          0          0          0
116              10.30      0          0          0          0
117              10.40      0          0          0          0
119              10.80      0          0          0          0
121              10.80      0          0          0          0
123              10.80      0          0          0          0
125              10.80      0          0          0          0
128              10.30      0          0          0          0
130              10.80      0          0          0          0
132              11.00      0          0          0          0
134              11.30      0          0          0          0
136              11.30      0          0          0          0
138              11.00      0          0          0          0
139              10.90      0          0          0          0
141              10.17      0          0          0          0
143              9.50       0          0          0          0
146              8.50       0          0          0          0
147              8.70       0          0          0          0
149              8.60       0          0          0          0
152              7.50       0          0          0          0
154              7.40       0          0          0          0
156              7.40       0          0          0          0
164              7.60       0          0          0          0
166              7.60       0          0          0          0
168              7.50       0          0          0          0
170              7.50       0          0          0          0
172              7.50       0          0          0          0
174              7.00       0          0          0          0
175              7.00       0          0          0          0
177              6.50       0          0          0          0
179              7.00       0          0          0          0
181              6.70       0          0          0          0
184              7.20       0          0          0          0
185              6.95       0          0          0          0
187              7.00       0          0          0          0
189              6.81       0          0          0          0
192              6.90       0          0          0          0
193              6.91       0          0          0          0
196              7.00       0          0          0          0
198              7.10       0          0          0          0
199              7.10       0          0          0          0
201              7.00       0          0          0          0
203              7.00       0          0          0          0
208              7.60       0          0          0          0
210              7.80       0          0          0          0
212              10.00      0          0          0          0
213              10.00      0          0          0          0
216              16.80      0          0          0          0
217              15.50      0          0          0          0
218              15.50      0          0          0          0
222              6.70       0          0          0          0
224              6.80       0          0          0          0
226              6.70       0          0          0          0
228              6.30       0          0          0          0
230              6.20       0          0          0          0
232              6.40       0          0          0          0
234              6.30       0          0          0          0
236              6.00       0          0          0          0
238              6.00       0          0          0          0
240              6.40       0          0          0          0
242              6.40       0          0          0          0
244              4.90       0          0          0          0
245              4.90       0          0          0          0
247              4.70       0          0          0          0
250              4.60       0          0          0          0
252              4.80       0          0          0          0
255              4.50       0          0          0          0
256              4.50       0          0          0          0
259              4.20       0          0          0          0
261              4.00       0          0          0          0
267              3.80       0          0          0          0
269              3.80       0          0          0          0
271              3.80       0          0          0          0
273              3.70       0          0          0          0
277              3.50       0          0          0          0
279              3.50       0          0          0          0
283              3.50       0          0          0          0
284              3.50       0          0          0          0
286              3.50       0          0          0          0
288              3.50       0          0          0          0
291              9.60       0          0          0          0
292              9.10       0          0          0          0
294              9.00       0          0          0          0
296              8.85       0          0          0          0
298              9.70       0          0          0          0
302              8.30       0          0          0          0
304              7.20       0          0          0          0
306              6.10       0          0          0          0
308              5.50       0          0          0          0
310              6.00       0          0          0          0
314              7.00       0          0          0          0
316              6.00       0          0          0          0
318              5.50       0          0          0          0
320              6.05       0          0          0          0
322              6.60       0          0          0          0
324              7.00       0          0          0          0
325              10.00      0          0          0          0
326              9.50       0          0          0          0
328              9.20       0          0          0          0
330              10.00      0          0          0          0
331              9.50       0          0          0          0
333              9.50       0          0          0          0
337              9.00       0          0          0          0
338              8.90       0          0          0          0
343              8.00       0          0          0          0
346              9.00       0          0          0          0
351              6.60       0          0          0          0
353              5.60       0          0          0          0
354              6.00       0          0          0          0
356              6.60       0          0          0          0
358              6.40       0          0          0          0
360              6.00       0          0          0          0
363              6.00       0          0          0          0
366              8.40       0          0          0          0
369              8.60       0          0          0          0
370              8.50       0          0          0          0
373              8.80       0          0          0          0
378              8.50       0          0          0          0
380              6.20       0          0          0          0
381              6.10       0          0          0          0
384              6.30       0          0          0          0
385              6.20       0          0          0          0
388              6.20       0          0          0          0
390              6.10       0          0          0          0
394              6.00       0          0          0          0
395              5.60       0          0          0          0
399              6.00       0          0          0          0
400              5.70       0          0          0          0
403              5.90       0          0          0          0
404              5.70       0          0          0          0
407              6.00       0          0          0          0
408              5.80       0          0          0          0
412              9.50       0          0          0          0
413              9.50       0          0          0          0
415              6.70       0          0          0          0
417              6.40       0          0          0          0
419              5.80       0          0          0          0
421              5.70       0          0          0          0
423              5.60       0          0          0          0
425              5.70       0          0          0          0
427              5.90       0          0          0          0
429              5.80       0          0          0          0
431              4.50       0          0          0          0
433              4.30       0          0          0          0
435              4.20       0          0          0          0
437              4.40       0          0          0          0
440              3.65       0          0          0          0
442              3.50       0          0          0          0
444              3.40       0          0          0          0
447              4.40       0          0          0          0
449              5.10       0          0          0          0
452              4.70       0          0          0          0
454              4.00       0          0          0          0
456              4.30       0          0          0          0
459              4.30       0          0          0          0
462              4.30       0          0          0          0
464              4.30       0          0          0          0
467              4.70       0          0          0          0
469              4.30       0          0          0          0
471              5.50       0          0          0          0
473              5.50       0          0          0          0
477              5.60       0          0          0          0
478              5.40       0          0          0          0
480              5.40       0          0          0          0
487              16.80      0          0          0          0
489              10.36      0          0          0          0
491              3.60       0          0          0          0
493              3.50       0          0          0          0
496              7.90       0          0          0          0
497              7.60       0          0          0          0
500              8.20       0          0          0          0
502              8.00       0          0          0          0
503              8.00       0          0          0          0
506              6.70       0          0          0          0
507              6.90       0          0          0          0
510              6.80       0          0          0          0
511              6.70       0          0          0          0
515              7.50       0          0          0          0
516              6.70       0          0          0          0
519              9.40       0          0          0          0
520              9.60       0          0          0          0
523              9.40       0          0          0          0
524              9.40       0          0          0          0
527              9.45       0          0          0          0
528              9.45       0          0          0          0
531              11.90      0          0          0          0
533              11.61      0          0          0          0
535              12.30      0          0          0          0
536              12.20      0          0          0          0
539              4.80       0          0          0          0
540              4.60       0          0          0          0
545              5.50       0          0          0          0
547              5.00       0          0          0          0
549              5.20       0          0          0          0
552              6.50       0          0          0          0
553              7.50       0          0          0          0
556              6.60       0          0          0          0
557              6.50       0          0          0          0
561              4.90       0          0          0          0
562              4.30       0          0          0          0
565              5.50       0          0          0          0
569              4.50       0          0          0          0
571              4.90       0          0          0          0
573              4.40       0          0          0          0
576              3.90       0          0          0          0
578              4.50       0          0          0          0
579              4.50       0          0          0          0
582              4.00       0          0          0          0
583              4.71       0          0          0          0
585              5.54       0          0          0          0
587              4.20       0          0          0          0
590              4.30       0          0          0          0
591              4.20       0          0          0          0
595              4.20       0          0          0          0
598              4.50       0          0          0          0
599              4.50       0          0          0          0
602              6.70       0          0          0          0
604              6.60       0          0          0          0
606              4.65       0          0          0          0
609              4.40       0          0          0          0
611              6.70       0          0          0          0
612              6.70       0          0          0          0
615              7.40       0          0          0          0
H622             7.20       0          0          0          0
H623             7.25       0          0          0          0
H626             7.30       0          0          0          0
H628             7.30       0          0          0          0
H629             7.30       0          0          0          0
H633             7.30       0          0          0          0
H634             7.50       0          0          0          0
H637             7.50       0          0          0          0
H640             9.00       0          0          0          0
649              12.00      0          0          0          0
H650             12.91      0          0          0          0
B651             12.50      0          0          0          0
652              13.00      0          0          0          0
657              12.61      0          0          0          0
H659             13.00      0          0          0          0
H661             13.00      0          0          0          0
664              10.80      0          0          0          0
B666             4.80       0          0          0          0
B669             5.50       0          0          0          0
H671             4.00       0          0          0          0
673              5.50       0          0          0          0
H675             7.40       0          0          0          0
617              9.80       0          0          0          0
619              9.90       0          0          0          0
B621             6.95       0          0          0          0
622              6.95       0          0          0          0
B626             4.30       0          0          0          0
B632             4.50       0          0          0          0
B635             8.50       0          0          0          0
637              9.60       0          0          0          0
639              8.50       0          0          0          0
H618             8.00       0          0          0          0
H-621            7.80       0          0          0          0
S625             8.00       0          0          0          0
S627             8.20       0          0          0          0
S628             8.00       0          0          0          0
S633             8.80       0          0          0          0
S636             9.60       0          0          0          0
S640             9.00       0          0          0          0
H-641            9.00       0          0          0          0
H644             11.80      0          0          0          0
646              12.60      0          0          0          0
648              13.40      0          0          0          0
653              12.92      0          0          0          0
H655             12.92      0          0          0          0
H662             13.50      0          0          0          0
665              10.20      0          0          0          0
667              11.50      0          0          0          0
H670             11.50      0          0          0          0
H672             6.00       0          0          0          0
H676             7.30       0          0          0          0
H678             11.25      0          0          0          0
686              6.60       0          0          0          0
747              7.40       0          0          0          0
752              5.30       0          0          0          0
754              4.70       0          0          0          0
756              7.25       0          0          0          0
761              12.20      0          0          0          0
763              12.60      0          0          0          0
766              12.80      0          0          0          0
768              11.25      0          0          0          0
770              9.60       0          0          0          0
772              7.30       0          0          0          0
775              6.10       0          0          0          0
776              6.10       0          0          0          0
779              6.40       0          0          0          0
780              6.50       0          0          0          0
783              6.70       0          0          0          0
787              4.20       0          0          0          0
800              6.00       0          0          0          0
802              8.20       0          0          0          0
805              8.00       0          0          0          0
807              6.80       0          0          0          0
809              7.20       0          0          0          0
PUMP-DSCRG       8.00       0          0          0          0
816              8.00       0          6.00       0          0

[OUTFALLS]
;;Name           Elev       Type       Stage      Gated
;;-------------- ---------- ---------- ---------- -----
101              3.60       FREE                  NO
485              4.67       FREE                  NO
677              4.00       FREE                  NO

[STORAGE]
;;Name           Elev       MaxDepth   InitDepth  Shape      Curve/Params
;;-------------- ---------- ---------- ---------- ---------- ----------
LEVEE            3.50       0          10.00      FUNCTIONAL 400.00 0          0
STORAGE          3.50       0          0          FUNCTIONAL 0 0          0

[CONDUITS]
;;Name           From             To               Length     Roughness  InOffset   OutOffset  InitFlow   MaxFlow
;;-------------- ---------------- ---------------- ---------- ---------- ---------- ---------- ---------- ----------
6                3                5                34.00      0.0140     8.19       8.11       0          0
9                7                8                32.00      0.0140     4.23       4.20       0          0
10               5                7                1550.00    0.0400     8.11       4.23       0          0
12               8                11               1700.00    0.0400     4.20       2.50       0          0
14               11               13               32.00      0.0140     2.50       2.47       0          0
16.1             16.2             15               83.00      0.0240     3.29       3.11       0          0
19               17               18               50.00      0.0140     3.06       2.91       0          0
21               686              20               1000.00    0.0400     2.87       1.87       0          0
24               22               23               32.00      0.0140     0.26       0.23       0          0
25               56               22               1550.00    0.0400     1.81       0.26       0          0
27               23               26               750.00     0.0400     0.23       -0.52      0          0
29               26               28               32.00      0.0140     -0.52      -0.55      0          0
31               28               30               1450.00    0.0400     -0.55      -2.00      0          0
33.1             33.2             32               32.00      0.0240     -0.46      -0.52      0          0
36               34               35               90.00      0.0140     2.76       2.67       0          0
38               35               37               70.00      0.0140     2.67       2.60       0          0
39               37               46               100.00     0.0140     2.60       2.50       0          0
41               40               35               32.00      0.0140     2.70       2.67       0          0
43               42               37               32.00      0.0140     2.63       2.60       0          0
45.1             45.2             44               35.00      0.0140     2.33       3.50       0          0
47               46               13               32.00      0.0140     2.50       2.47       0          0
49               15               48               850.00     0.0400     2.42       1.57       0          0
51               48               50               24.00      0.0140     1.57       1.54       0          0
53               50               52               32.00      0.0140     1.54       1.51       0          0
54               50               55               650.00     0.0400     3.80       3.00       0          0
57               20               55               32.00      0.0140     1.87       1.84       0          0
58               55               56               32.00      0.0140     1.84       1.81       0          0
61               59               60               32.00      0.0140     -0.85      -0.88      0          0
62               Node_62          Node_1000259     780.00     0.0400     -0.07      -0.85      0          0
65.1             65.2             64               50.00      0.0240     0.83       0.18       0          0
66               60               561              800.00     0.0400     -0.88      -1.68      0          0
68               64               67               1550.00    0.0400     -2.11      -2.89      0          0
70.1             70.2             69               139.00     0.0140     0.35       0.14       0          0
73               71               72               72.00      0.0140     2.90       2.83       0          0
75               72               74               100.00     0.0400     2.83       2.73       0          0
77.1             77.2             78               70.00      0.0140     3.75       3.27       0          0
81               78               80               40.00      0.0140     2.68       2.64       0          0
85               80               82               2100.00    0.0400     2.64       0.54       0          0
87               86               83               2050.00    0.0400     2.87       0.82       0          0
88               83               82               280.00     0.0400     0.82       0.54       0          0
90               82               89               2700.00    0.0400     0.54       -2.16      0          0
92.1             92.2             91               48.00      0.0240     -0.47      -0.35      0          0
94               91               93               1500.00    0.0400     -2.21      -2.96      0          0
96.1             96.2             95               144.00     0.0140     0.44       -0.50      0          0
99               97               98               148.00     0.0140     0.57       0.40       0          0
102              100              101              160.00     0.0140     -1.27      -1.29      0          0
104              69               103              300.00     0.0400     -2.90      -2.93      0          0
106              103              105              40.00      0.0140     -2.93      -2.94      0          0
107              105              98               160.00     0.0400     -2.94      -2.95      0          0
108              98               95               200.00     0.0400     -2.95      -2.97      0          0
111              109              110              80.00      0.0140     10.83      10.63      0          0
114              112              113              40.00      0.0140     5.38       5.28       0          0
115              110              112              2100.00    0.0140     10.63      5.38       0          0
118              116              H634             2200.00    0.0140     6.20       4.00       0          0
120              117              119              110.00     0.0140     7.11       7.00       0          0
122              119              121              110.00     0.0140     5.80       5.69       0          0