;; SWMM5 .inp converted from XPSWMM .xp file
;; Generated by XPSWMM Card Reader
;; Source format: XP_CARD | Original title: Grand Ledge Flow Monitoring

[TITLE]
;;Project Title/Notes
Grand Ledge Flow Monitoring

[OPTIONS]
FLOW_UNITS           CFS
INFILTRATION         HORTON
FLOW_ROUTING         DYNWAVE
LINK_OFFSETS         DEPTH
MIN_SLOPE            0.0
ALLOW_PONDING        NO
SKIP_STEADY_STATE    NO
ROUTING_STEP         00:00:15
VARIABLE_STEP        0.75
INERTIAL_DAMPING     PARTIAL
NORMAL_FLOW_LIMITED  BOTH
MAX_TRIALS           50

[JUNCTIONS]
;;Name           Elev       MaxDepth   InitDepth  SurDepth   Aponded
;;-------------- ---------- ---------- ---------- ---------- ----------
MH-1             799.50     0          0          0          0
MH-2             799.00     0          0          0          0
MH-3             798.50     0          0          0          0
MH-3A            801.20     0          0          0          0
MH-16            800.40     0          0          0          0
MH-86            801.70     0          0          0          0
MH-87            799.20     0          0          0          0
MH-88            803.00     0          0          0          0
MH-89            803.60     0          0          0          0
MH-90            806.00     0          0          0          0
MH-91            800.50     0          0          0          0
MH-92            804.80     0          0          0          0
MH-93            807.50     0          0          0          0
MH-94            802.50     0          0          0          0
MH-95            804.80     0          0          0          0
MH-200           806.60     0          0          0          0
MH-201           805.00     0          0          0          0
MH-202A          806.10     0          0          0          0
MH-202           805.50     0          0          0          0
MH-203           812.30     0          0          0          0
North            812.00     0          0          0          0
Siphon           802.00     0          0          0          0
Sandstone        820.00     0          0          0          0
Jefferson        820.00     0          0          0          0
MH-204           809.30     0          0          0          0
MH-205           810.70     0          0          0          0
MH-209           812.00     0          0          0          0
MH-209A          813.80     0          0          0          0
MH-209C          806.50     0          0          0          0
MH-210           808.50     0          0          0          0
MH-211           814.40     0          0          0          0
MH-212           807.70     0          0          0          0
MH-213           809.00     0          0          0          0
MH-214           811.50     0          0          0          0
MH-222           809.00     0          0          0          0
Clinton          815.00     0          0          0          0

[CONDUITS]
;;Name           From             To               Length     Roughness  InOffset   OutOffset  InitFlow   MaxFlow
;;-------------- ---------------- ---------------- ---------- ---------- ---------- ---------- ---------- ----------
16               MH-92            MH-91            252.00     0.0090     797.41     797.06     0          0
17               MH-91            MH-90            361.00     0.0090     797.06     796.46     0          0
18               MH-90            MH-89            329.00     0.0090     796.46     795.93     0          0
19               MH-89            MH-88            388.00     0.0090     795.93     795.68     0          0
20               MH-88            MH-87            412.00     0.0090     795.68     794.70     0          0
21               MH-87            MH-86            353.00     0.0090     794.70     794.52     0          0
22               MH-86            MH-16            266.00     0.0090     794.52     794.05     0          0
23               MH-16            MH-3A            55.00      0.0090     794.05     793.95     0          0
24               MH-3A            MH-3             65.00      0.0090     793.95     793.41     0          0
25               MH-3             MH-2             350.00     0.0090     793.41     792.78     0          0
26               MH-2             MH-1             65.00      0.0090     792.78     792.61     0          0
35               MH-203           MH-202           249.00     0.0090     800.24     800.10     0          0
36               MH-202           MH-202A          169.00     0.0090     800.10     799.95     0          0
37               MH-202A          MH-201           192.00     0.0090     799.95     799.71     0          0
38               MH-201           MH-200           326.00     0.0090     799.71     799.34     0          0
39               MH-200           MH-95            396.00     0.0090     799.34     798.37     0          0
41               MH-94            MH-93            365.00     0.0090     798.08     797.84     0          0
42               MH-93            MH-92            496.00     0.0090     797.84     797.41     0          0
44               North            MH-203           100.00     0.0140     800.40     800.00     0          0
47               Siphon           MH-3A            100.00     0.0140     794.40     794.00     0          0
48               Sandstone        MH-16            250.00     0.0150     795.73     794.10     0          0
50               Jefferson        MH-95            100.00     0.0150     799.50     799.00     0          0
59               MH-212           MH-211           387.00     0.0150     803.04     802.31     0          0
60               MH-211           MH-210           279.00     0.0150     802.31     802.05     0          0
61               MH-210           MH-209C          118.00     0.0150     802.05     801.79     0          0
62               MH-209C          MH-209A          310.00     0.0150     801.79     801.51     0          0
63               MH-209A          MH-209           37.00      0.0090     801.51     801.40     0          0
64               MH-209           MH-205           78.00      0.0090     801.40     801.21     0          0
65               MH-205           MH-204           139.00     0.0090     801.21     800.81     0          0
66               MH-204           MH-203           264.00     0.0090     800.81     800.24     0          0
70               MH-222           MH-214           400.00     0.0150     804.33     803.87     0          0
71               MH-214           MH-213           300.00     0.0150     803.87     803.54     0          0
72               MH-213           MH-212           345.00     0.0150     803.54     803.04     0          0
74               Clinton          MH-222           250.00     0.0150     804.63     804.33     0          0

[ORIFICES]
;;Name           From             To               Type       Offset     Qcoeff     Gated    CloseTime
;;-------------- ---------------- ---------------- ---------- ---------- ---------- -------- ----------
low flow         MH-95            MH-94            SIDE       798.37     0.650      NO       0

[XSECTIONS]
;;Link           Shape        Geom1      Geom2      Geom3      Geom4      Barrels
;;-------------- ------------ ---------- ---------- ---------- ---------- ----------
16               CIRCULAR     1.69       0          0          0          1
17               CIRCULAR     1.69       0          0          0          1
18               CIRCULAR     1.69       0          0          0          1
19               CIRCULAR     1.69       0          0          0          1
20               CIRCULAR     1.69       0          0          0          1
21               CIRCULAR     1.69       0          0          0          1
22               CIRCULAR     1.69       0          0          0          1
23               CIRCULAR     1.69       0          0          0          1
24               CIRCULAR     1.69       0          0          0          1
25               CIRCULAR     1.69       0          0          0          1
26               CIRCULAR     1.69       0          0          0          1
35               CIRCULAR     1.44       0          0          0          1
36               CIRCULAR     1.44       0          0          0          1
37               CIRCULAR     1.44       0          0          0          1
38               CIRCULAR     1.44       0          0          0          1
39               CIRCULAR     1.44       0          0          0          1
41               CIRCULAR     1.69       0          0          0          1
42               CIRCULAR     1.69       0          0          0          1
44               CIRCULAR     1.00       0          0          0          1
47               CIRCULAR     0.67       0          0          0          1
48               CIRCULAR     2.00       0          0          0          1
50               CIRCULAR     1.44       0          0          0          1
59               CIRCULAR     1.25       0          0          0          1
60               CIRCULAR     1.25       0          0          0          1
61               CIRCULAR     1.25       0          0          0          1
62               CIRCULAR     1.25       0          0          0          1
63               CIRCULAR     1.44       0          0          0          1
64               CIRCULAR     1.44       0          0          0          1
65               CIRCULAR     1.44       0          0          0          1
66               CIRCULAR     1.44       0          0          0          1
70               CIRCULAR     1.25       0          0          0          1
71               CIRCULAR     1.25       0          0          0          1
72               CIRCULAR     1.25       0          0          0          1
74               CIRCULAR     1.25       0          0          0          1
low flow         RECT_CLOSED  2.00       0          0          0          

[LOSSES]
;;Link           Inlet      Outlet     Average    Flap Gate
;;-------------- ---------- ---------- ---------- ----------
16               0          0          0          NO
17               0          0          0          NO
18               0          0          0          NO
19               0          0          0          NO
20               0          0          0          NO
21               0          0          0          NO
22               0          0          0          NO
23               0          0          0          NO
24               0          0          0          NO
25               0          0          0          NO
26               0          0          0          NO
35               0          0          0          NO
36               0          0          0          NO
37               0          0          0          NO
38               0          0          0          NO
39               0          0          0          NO
41               0          0          0          NO
42               0          0          0          NO
44               0          0          0          NO
47               0          0          0          NO
48               0          0          0          NO
50               0          0          0          NO
59               0          0          0          NO
60               0          0          0          NO
61               0          0          0          NO
62               0          0          0          NO
63               0          0          0          NO
64               0          0          0          NO
65               0          0          0          NO
66               0          0          0          NO
70               0          0          0          NO
71               0          0          0          NO
72               0          0          0          NO
74               0          0          0          NO

[COORDINATES]
;;Node           X-Coord            Y-Coord
;;-------------- ------------------ ------------------
MH-1             16.58              12.55             
MH-2             26.04              32.15             
MH-3             35.50              49.01             
MH-3A            42.13              59.20             
MH-16            48.75              70.57             
MH-86            57.27              85.08             
MH-87            67.21              101.16            
MH-88            76.20              119.98            
MH-89            85.19              138.80            
MH-90            95.60              158.01            
MH-91            107.67             175.06            
MH-92            117.98             191.84            
MH-93            124.94             205.16            
MH-94            134.88             219.86            
MH-95            144.10             235.74            
MH-200           151.20             251.03            
MH-201           158.30             268.08            
MH-202A          164.69             286.32            
MH-202           169.18             306.31            
MH-203           172.73             328.07            
North            146.23             332.78            
Siphon           22.25              74.59             
Sandstone        70.52              62.85             
Jefferson        178.14             218.49            
MH-204           175.13             345.62            
MH-205           177.62             368.30            
MH-209           180.11             390.29            
MH-209A          185.91             412.29            
MH-209C          190.89             430.16            
MH-210           194.21             452.16            
MH-211           200.02             470.71            
MH-212           204.99             489.96            
MH-213           212.15             510.51            
MH-214           229.27             527.72            
MH-222           251.27             542.92            
Clinton          257.38             512.53            

[MAP]
DIMENSIONS 16.58 12.55 257.38 542.92
Units      None

[REPORT]
INPUT            YES
SUBCATCHMENTS    ALL
NODES            ALL
LINKS            ALL



