;; SWMM5 .inp converted from XPSWMM .xp file
;; Generated by XPSWMM Card Reader
;; Source format: XP_CARD | Original title: Toongabbie Creek - Confluence Area

[TITLE]
;;Project Title/Notes
Toongabbie Creek - Confluence Area

[OPTIONS]
FLOW_UNITS           CMS
INFILTRATION         HORTON
FLOW_ROUTING         DYNWAVE
LINK_OFFSETS         DEPTH
MIN_SLOPE            0.0
ALLOW_PONDING        NO
SKIP_STEADY_STATE    NO
ROUTING_STEP         00:00:20
VARIABLE_STEP        0.75
INERTIAL_DAMPING     PARTIAL
NORMAL_FLOW_LIMITED  BOTH
MAX_TRIALS           50
HEAD_TOLERANCE       0.0001

[JUNCTIONS]
;;Name           Elev       MaxDepth   InitDepth  SurDepth   Aponded
;;-------------- ---------- ---------- ---------- ---------- ----------
178              50.00      0          0          0          0
179              50.00      0          0          0          0
183              50.00      0          0          0          0
185              50.00      0          0          0          0
1.15             50.00      0          0          0          0
189              50.00      0          0          0          0
191              50.00      0          0          0          0
Outlet           50.00      0          0          0          0
6.13             50.00      0          0          0          0
198              50.00      0          0          0          0
190              50.00      0          0          0          0
203              50.00      0          0          0          0
205              50.00      0          0          0          0
211              50.00      0          0          0          0
212              50.00      0          0          0          0
218              50.00      0          0          0          0
223              50.00      0          0          0          0
6.08             50.00      0          0          0          0
P3               50.00      0          0          0          0
63.00            50.00      0          0          0          0
62.00            50.00      0          0          0          0
6.10             50.00      0          0          0          0
234              50.00      0          0          0          0
236              50.00      0          0          0          0
238              50.00      0          0          0          0
P4               50.00      0          0          0          0
180              50.00      0          0          0          0
244              50.00      0          0          0          0
251              50.00      0          0          0          0
253              50.00      0          0          0          0
290              50.00      0          0          0          0
292              50.00      0          0          0          0
297              50.00      0          0          0          0
299              50.00      0          0          0          0
6.07             51.00      0          0          0          0
65.09            50.00      0          0          0          0
O2               50.00      0          0          0          0
O3               50.00      0          0          0          0
O6               50.00      0          0          0          0
O7               50.00      0          0          0          0
O8               50.00      0          0          0          0
O9               50.00      0          0          0          0
O10              50.00      0          0          0          0
O14              50.00      0          0          0          0
O15              50.00      0          0          0          0
O5               50.00      0          0          0          0
O1               50.00      0          0          0          0
609              50.00      0          0          0          0
611              50.00      0          0          0          0
612              50.00      0          0          0          0
613              50.00      0          0          0          0
620              50.00      0          0          0          0
621              50.00      0          0          0          0
622              50.00      0          0          0          0
625              50.00      0          0          0          0
626              50.00      0          0          0          0
69.00            50.00      0          0          0          0
631              50.00      0          0          0          0
632              50.00      0          0          0          0
633              50.00      0          0          0          0
634              50.00      0          0          0          0
635              50.00      0          0          0          0
636              50.00      0          0          0          0
637              50.00      0          0          0          0
65.05E           50.00      0          0          0          0
680              50.00      0          0          0          0
C1               50.00      0          0          0          0
C2               50.00      0          0          0          0
C3               50.00      0          0          0          0
694              50.00      0          0          0          0
695              50.00      0          0          0          0

[STORAGE]
;;Name           Elev       MaxDepth   InitDepth  Shape      Curve/Params
;;-------------- ---------- ---------- ---------- ---------- ----------
181              50.00      0          0          FUNCTIONAL 2.00 0          0
1.12E            50.00      0          0          FUNCTIONAL 10.00 0          0
6.12             50.00      0          0          FUNCTIONAL 2.00 0          0
208              50.00      0          0          FUNCTIONAL 2.00 0          0
215              50.00      0          0          FUNCTIONAL 100.00 0          0
216              50.00      0          0          FUNCTIONAL 100.00 0          0
6.11             50.00      0          0          FUNCTIONAL 100.00 0          0
248              50.00      0          0          FUNCTIONAL 5.00 0          0
249              50.00      0          0          FUNCTIONAL 2.00 0          0
256              51.00      -1.00      0          FUNCTIONAL 2.00 0          0
258              51.00      0          0          FUNCTIONAL 10.00 0          0
200              51.00      0          0          FUNCTIONAL 2.00 0          0
287              50.00      0          0          FUNCTIONAL 5.00 0          0
288              50.00      0          0          FUNCTIONAL 5.00 0          0
296              50.00      0          0          FUNCTIONAL 1.00 0          0
O11              50.00      0          0          FUNCTIONAL 5.00 0          0
O12              50.00      0          0          FUNCTIONAL 5.00 0          0
O13              50.00      0          0          FUNCTIONAL 10.00 0          0
O4               50.00      0          0          FUNCTIONAL 200.00 0          0
64.00            50.00      0          0          FUNCTIONAL 5.00 0          0
O19              50.00      0          0          FUNCTIONAL 5.00 0          0
O20              50.00      0          0          FUNCTIONAL 5.00 0          0
64.01            50.00      0          0          FUNCTIONAL 10.00 0          0
O17              50.00      0          0          FUNCTIONAL 2.00 0          0
30.00            50.00      0          0          FUNCTIONAL 20.00 0          0
614              50.00      0          0          FUNCTIONAL 50.00 0          0
615              50.00      0          0          FUNCTIONAL 50.00 0          0
65.08            50.00      0          0          FUNCTIONAL 5.00 0          0
628              50.00      0          0          FUNCTIONAL 100.00 0          0
65.06            50.00      0          0          FUNCTIONAL 100.00 0          0
667              50.00      0          0          FUNCTIONAL 50.00 0          0

[CONDUITS]
;;Name           From             To               Length     Roughness  InOffset   OutOffset  InitFlow   MaxFlow
;;-------------- ---------------- ---------------- ---------- ---------- ---------- ---------- ---------- ----------
T33.1            178              179              0          0          19.85      19.21      0          0
T32.7            179              181              0          0          19.21      19.01      0          0
T32.5            181              183              0          0          19.01      18.09      0          0
T32.3            183              185              0          0          18.09      17.91      0          0
T31.15           185              1.15             0          0          17.91      17.30      0          0
JOHNST           1.15             189              10.00      0          17.30      17.30      0          0
T32.0            191              189              0          0          17.32      17.30      0          0
T30.3            191              Outlet           0          0          17.32      17.11      0          0
T33.2            1.12E            178              0          0          20.87      19.85      0          0
PH1.2            6.13             198              0          0          23.00      22.65      0          0
PH1.15           198              190              0          0          22.65      22.07      0          0
PH1.0            190              1.12E            0          0          22.07      20.87      0          0
PH1.54           203              6.13             0          0          23.16      23.00      0          0
PH1.7            205              203              0          0          23.30      23.16      0          0
PH2.0            208              205              0          0          23.38      23.30      0          0
PH3.1            211              212              0          0          24.66      23.71      0          0
PH2.4            212              6.12             0          0          23.71      23.58      0          0
PH4.1            215              216              0          0          25.68      25.25      0          0
PH4.0            216              218              0          0          25.25      24.81      0          0
PH3.2            218              211              0          0          24.81      24.66      0          0
5.2U             5.2NS            215              14.70      0.0150     25.83      25.68      0          0
PH9.3            P3               6.08             0          0          31.11      31.05      0          0
PH9.1            P3               63.00            0          0          31.11      29.75      0          0
PH9              63.00            62.00            0          0          29.75      29.00      0          0
PH8              62.00            6.10             0          0          29.00      28.77      0          0
PH7.4            6.10             234              0          0          28.77      28.14      0          0
PH7.2            234              236              0          0          28.14      27.60      0          0
PH7              236              238              0          0          27.60      26.92      0          0
PH6.5            238              P4               0          0          26.92      26.55      0          0
PH6.0            P4               180              0          0          26.55      26.05      0          0
PH5.7            180              244              0          0          26.05      25.64      0          0
PH5.4            6.11             244              0          0          25.83      25.64      0          0
PH11.5           251              253              0          0          33.15      32.84      0          0
PH11             253              223              0          0          32.84      31.62      0          0
PH13             248              256              0          0          33.10      33.09      0          0
WENTU            WENTNS           256              22.00      0.0150     33.16      33.09      0          0
RAILU            RAILNS           258              37.00      0.0150     33.47      33.16      0          0
G2.6             288              290              0          0          24.51      24.03      0          0
G2.5             290              292              0          0          24.03      23.52      0          0
G2.2             292              6.13             0          0          23.52      23.00      0          0
STATNU           STATNS           288              23.80      0.0150     24.63      24.51      0          0
G3.13a           296              297              0          0          25.77      25.33      0          0
G3.13            297              299              0          0          25.33      24.99      0          0
G3.12            299              287              10.00      0.0140     24.99      24.63      0          0
PH10.2           223              6.08             0          0          31.62      31.05      0          0
PH12C            PH12NS           249              60.00      0.0150     33.10      33.05      0          0
PH14.4           6.07             200              0          0          34.00      33.47      0          0
RAILG            65.09            296              0          0          25.99      25.77      0          0
O1O5             O5               O1               0          0          26.00      25.95      0          0
O5O8             O8               O5               0          0          26.40      26.00      0          0
O8O11            O11              O8               0          0          27.00      26.40      0          0
O8O9             O8               O9               0          0          26.40      26.20      0          0
O9O10            O9               O10              0          0          26.20      26.00      0          0
O5O6             O5               O6               0          0          26.00      25.80      0          0
O6O7             O6               O7               0          0          25.80      25.70      0          0
O1O2             O1               O2               0          0          25.95      25.85      0          0
O2O3             O2               O3               0          0          25.85      25.80      0          0
O3O4             O3               O4               0          0          25.80      25.75      0          0
O2O6             O2               O6               0          0          25.85      25.80      0          0
O6O9             O9               O6               0          0          26.20      25.80      0          0
O9O12            O12              O9               0          0          26.50      26.20      0          0
O4O7             O4               O7               0          0          25.75      25.70      0          0
O7O10            O10              O7               0          0          26.00      25.70      0          0
O10O13           O10              O13              0          0          26.00      25.80      0          0
O15203           O15              203              0          0          26.30      25.40      0          0
209O5            290              O15              0          0          26.40      26.30      0          0
O14O15           O14              O15              0          0          27.50      26.30      0          0
299O14           299              O14              0          0          28.10      27.50      0          0
PH12             251              249              0          0          33.15      33.05      0          0
PIPE1            SURF1            O19              90.00      0.0140     26.20      25.30      0          0
PIPE2            SURF2            O20              120.00     0.0140     25.30      24.10      0          0
PIPE3            SURF3            O11              60.00      0.0140     24.10      23.46      0          0
PIPE4            SURF4            O12              171.00     0.0140     23.46      22.44      0          0
PIPE5            SURF5            O13              180.00     0.0140     22.39      22.01      0          0
PIPE6            SURF6            64.01            80.00      0.0140     22.01      21.84      0          0
30187            30.00            185              43.00      0.0150     21.68      21.00      0          0
G16.0            65.05E           637              0          0          36.44      35.22      0          0
G15.5            637              636              0          0          35.22      34.04      0          0
G15.0            635              636              0          0          34.18      34.04      0          0
G14.0            635              694              0          0          34.18      33.70      0          0
G13.2            634              633              0          0          32.92      32.43      0          0
G13.1            633              632              0          0          32.43      31.21      0          0
G13.0            632              695              0          0          31.21      29.40      0          0
G12.0            65.06            631              10.00      0          30.29      30.20      0          0
G11.0            69.00            628              0          0          29.77      29.57      0          0
G10.5            69.00            626              0          0          29.77      29.45      0          0
G10.0            626              625              0          0          29.45      28.67      0          0
G7.0             622              621              0          0          27.90      27.58      0          0
G6.0             621              620              0          0          27.58      27.51      0          0
G5.2             620              615              0          0          27.51      27.35      0          0
G5.0             613              614              0          0          27.28      27.25      0          0
G4.34            613              612              0          0          27.28      26.51      0          0
G4.31            612              611              0          0          26.51      26.50      0          0
661              ?                ?                0          0          26.50      26.38      0          0
G7.5             667              622              0          0          28.03      27.90      0          0
portc            portr            628              8.00       0.0150     29.57      29.57      0          0
octcul           octrd            667              10.00      0.0300     28.40      28.37      0          0
cornc            cornr            614              17.50      0.0150     27.35      27.25      0          0
portic           portir           680              14.00      0.0150     26.40      26.38      0          0
O17181           O17              181              0          0          20.67      20.12      0          0
G8.5             625              65.08            0          0          28.67      28.40      0          0
681              ?                ?                0          0          26.38      25.99      0          0
A                6.11             C1               0          0          28.40      27.50      0          0
B                C1               C2               0          0          27.50      27.10      0          0
C                C2               C3               0          0          27.10      26.40      0          0
D                C3               6.12             0          0          26.40      26.50      0          0
G13.5            694              634              0          0          33.70      32.92      0          0
G12.5            631              695              0          0          30.20      29.40      0          0

[WEIRS]
;;Name           From             To               Type       CrestHt    Qcoeff     Gated    EndCon   EndCoeff   Surcharge
;;-------------- ---------------- ---------------- ---------- ---------- ---------- -------- -------- ---------- ----------
PH2BC            PH2NS            208              TRANSVERSE 0          1.840      NO       0        0          YES
198O4            198              O4               TRANSVERSE 26.25      1.840      NO       0        0          YES
P5O3             6.13             O3               TRANSVERSE 26.30      1.840      NO       0        0          YES
203O2            203              O2               TRANSVERSE 26.40      1.840      NO       0        0          YES
205O1            205              O1               TRANSVERSE 26.40      1.840      NO       0        0          YES
PIPE7            SURF7            SURF7B           TRANSVERSE 26.00      1.840      NO       0        0          YES
FITZ1            FITZ2            FITZ3            TRANSVERSE 26.35      1.840      NO       0        0          YES
700              ?                ?                TRANSVERSE 26.50      1.840      NO       0        0          YES
701              ?                ?                TRANSVERSE 26.50      1.840      NO       0        0          YES

[XSECTIONS]
;;Link           Shape        Geom1      Geom2      Geom3      Geom4      Barrels
;;-------------- ------------ ---------- ---------- ---------- ---------- ----------
T33.1            IRREGULAR    12.00      0          0          0          1
T32.7            IRREGULAR    12.00      0          0          0          1
T32.5            IRREGULAR    12.00      0          0          0          1
T32.3            IRREGULAR    12.00      0          0          0          1
T31.15           IRREGULAR    12.00      0          0          0          1
JOHNST           IRREGULAR    12.00      0          0          0          1
T32.0            IRREGULAR    15.00      0          0          0          1
T30.3            IRREGULAR    15.00      0          0          0          1
T33.2            IRREGULAR    12.00      0          0          0          1
PH1.2            IRREGULAR    10.00      0          0          0          1
PH1.15           IRREGULAR    10.00      0          0          0          1
PH1.0            IRREGULAR    10.00      0          0          0          1
PH1.54           IRREGULAR    10.00      0          0          0          1
PH1.7            IRREGULAR    10.00      0          0          0          1
PH2.0            IRREGULAR    10.00      0          0          0          1
PH3.1            IRREGULAR    10.00      0          0          0          1
PH2.4            IRREGULAR    10.00      0          0          0          1
PH4.1            IRREGULAR    10.00      0          0          0          1
PH4.0            IRREGULAR    10.00      0          0          0          1
PH3.2            IRREGULAR    10.00      0          0          0          1
5.2U             RECT_CLOSED  2.15       3.10       0          0          2
PH9.3            IRREGULAR    10.00      0          0          0          1
PH9.1            IRREGULAR    10.00      0          0          0          1
PH9              IRREGULAR    10.00      0          0          0          1
PH8              IRREGULAR    10.00      0          0          0          1
PH7.4            IRREGULAR    10.00      0          0          0          1
PH7.2            IRREGULAR    10.00      0          0          0          1
PH7              IRREGULAR    10.00      0          0          0          1
PH6.5            IRREGULAR    10.00      0          0          0          1
PH6.0            IRREGULAR    10.00      0          0          0          1
PH5.7            IRREGULAR    10.00      0          0          0          1
PH5.4            IRREGULAR    10.00      0          0          0          1
PH11.5           IRREGULAR    10.00      0          0          0          1
PH11             IRREGULAR    10.00      0          0          0          1
PH13             IRREGULAR    10.00      0          0          0          1
WENTU            RECT_CLOSED  2.40       2.70       0          0          2
RAILU            RECT_CLOSED  2.40       3.35       0          0          2
G2.6             IRREGULAR    10.00      0          0          0          1
G2.5             IRREGULAR    10.00      0          0          0          1
G2.2             IRREGULAR    10.00      0          0          0          1
STATNU           RECT_CLOSED  2.40       4.20       0          0          2
G3.13a           IRREGULAR    10.00      0          0          0          1
G3.13            IRREGULAR    10.00      0          0          0          1
G3.12            IRREGULAR    10.00      0          0          0          1
PH10.2           IRREGULAR    10.00      0          0          0          1
PH12C            RECT_CLOSED  2.25       4.00       0          0          1
PH14.4           IRREGULAR    10.00      0          0          0          1
RAILG            IRREGULAR    10.00      0          0          0          1
O1O5             IRREGULAR    10.00      0          0          0          1
O5O8             IRREGULAR    10.00      0          0          0          1
O8O11            IRREGULAR    0          0          0          0          1
O8O9             IRREGULAR    10.00      0          0          0          1
O9O10            IRREGULAR    10.00      0          0          0          1
O5O6             IRREGULAR    10.00      0          0          0          1
O6O7             IRREGULAR    10.00      0          0          0          1
O1O2             IRREGULAR    10.00      0          0          0          1
O2O3             IRREGULAR    10.00      0          0          0          1
O3O4             IRREGULAR    10.00      0          0          0          1
O2O6             IRREGULAR    10.00      0          0          0          1
O6O9             IRREGULAR    10.00      0          0          0          1
O9O12            IRREGULAR    10.00      0          0          0          1
O4O7             IRREGULAR    10.00      0          0          0          1
O7O10            IRREGULAR    10.00      0          0          0          1
O10O13           IRREGULAR    10.00      0          0          0          1
O15203           IRREGULAR    10.00      0          0          0          1
209O5            IRREGULAR    10.00      0          0          0          1
O14O15           IRREGULAR    10.00      0          0          0          1
299O14           IRREGULAR    10.00      0          0          0          1
PH12             IRREGULAR    10.00      0          0          0          1
PIPE1            CIRCULAR     1.20       0          0          0          1
PIPE2            CIRCULAR     1.20       0          0          0          1
PIPE3            CIRCULAR     1.65       0          0          0          1
PIPE4            CIRCULAR     1.95       0          0          0          1
PIPE5            CIRCULAR     2.10       0          0          0          1
PIPE6            CIRCULAR     2.10       0          0          0          1
30187            CIRCULAR     0.90       0          0          0          1
G16.0            IRREGULAR    10.00      0          0          0          1
G15.5            IRREGULAR    10.00      0          0          0          1
G15.0            IRREGULAR    10.00      0          0          0          1
G14.0            IRREGULAR    10.00      0          0          0          1
G13.2            IRREGULAR    10.00      0          0          0          1
G13.1            IRREGULAR    10.00      0          0          0          1
G13.0            IRREGULAR    10.00      0          0          0          1
G12.0            IRREGULAR    10.00      0          0          0          1
G11.0            IRREGULAR    10.00      0          0          0          1
G10.5            IRREGULAR    10.00      0          0          0          1
G10.0            IRREGULAR    10.00      0          0          0          1
G7.0             IRREGULAR    10.00      0          0          0          1
G6.0             IRREGULAR    10.00      0          0          0          1
G5.2             IRREGULAR    10.00      0          0          0          1
G5.0             IRREGULAR    10.00      0          0          0          1
G4.34            IRREGULAR    10.00      0          0          0          1
G4.31            IRREGULAR    10.00      0          0          0          1
661              IRREGULAR    10.00      0          0          0          1
G7.5             IRREGULAR    10.00      0          0          0          1
portc            RECT_CLOSED  2.50       3.30       0          0          3
octcul           RECT_CLOSED  3.00       10.40      0          0          1
cornc            RECT_CLOSED  2.10       3.97       0          0          3
portic           RECT_CLOSED  2.10       3.97       0          0          3
O17181           IRREGULAR    12.00      0          0          0          1
G8.5             IRREGULAR    10.00      0          0          0          1
681              IRREGULAR    10.00      0          0          0          1
A                IRREGULAR    10.00      0          0          0          1
B                IRREGULAR    10.00      0          0          0          1
C                IRREGULAR    10.00      0          0          0          1
D                IRREGULAR    10.00      0          0          0          1
G13.5            IRREGULAR    10.00      0          0          0          1
G12.5            IRREGULAR    10.00      0          0          0          1
PH2BC            RECT_OPEN    0          0          0          0          
198O4            RECT_OPEN    0          180.00     0          0          
P5O3             RECT_OPEN    0          100.00     0          0          
203O2            RECT_OPEN    0          136.00     0          0          
205O1            RECT_OPEN    0          90.00      0          0          
PIPE7            RECT_OPEN    0          40.00      0          0          
FITZ1            RECT_OPEN    0          32.00      0          0          