;; SWMM5 .inp converted from XPSWMM .xp file
;; Generated by XPSWMM Card Reader
;; Source format: XP_CARD | Original title: CATCHMENT TRIBUTARY TO MONITOR 20.  USING OVERSIZED CHANNEL & ORIFICE

[TITLE]
;;Project Title/Notes
CATCHMENT TRIBUTARY TO MONITOR 20.  USING OVERSIZED CHANNEL & ORIFICE

[OPTIONS]
FLOW_UNITS           CMS
INFILTRATION         HORTON
FLOW_ROUTING         DYNWAVE
LINK_OFFSETS         DEPTH
MIN_SLOPE            0.0
ALLOW_PONDING        NO
SKIP_STEADY_STATE    NO
ROUTING_STEP         00:00:30
VARIABLE_STEP        0.75
INERTIAL_DAMPING     PARTIAL
NORMAL_FLOW_LIMITED  BOTH
MAX_TRIALS           30

[JUNCTIONS]
;;Name           Elev       MaxDepth   InitDepth  SurDepth   Aponded
;;-------------- ---------- ---------- ---------- ---------- ----------
0                700.89     0          0          0          0
0                698.60     0          0          0          0
0                695.09     0          0          0          0
0                694.48     0          0          0          0
0                690.98     0          0          0          0
0                688.54     0          0          0          0
0                689.15     0          0          0          0
0                688.39     0          0          0          0
0                688.39     0          0          0          0
0                688.69     0          0          0          0
0                690.37     0          0          0          0
0                690.52     0          0          0          0
0                686.71     0          0          0          0
0                685.95     0          0          0          0
0                684.27     0          0          0          0
0                683.82     0          0          0          0
0                683.05     0          0          0          0
0                682.90     0          0          0          0
0                683.51     0          0          0          0
0                683.36     0          0          0          0
0                683.97     0          0          0          0
0                684.27     0          0          0          0
0                682.60     0          0          0          0
0                682.14     0          0          0          0
0                682.90     0          0          0          0
0                682.29     0          0          0          0
0                683.21     0          0          0          0
0                681.38     0          0          0          0
0                679.85     0          0          0          0
0                680.46     0          0          0          0
0                679.70     0          0          0          0
0                679.85     0          0          0          0
0                679.70     0          0          0          0
0                681.23     0          0          0          0
0                696.16     0          0          0          0
0                690.37     0          0          0          0
0                688.85     0          0          0          0
0                687.32     0          0          0          0
0                685.34     0          0          0          0
0                685.19     0          0          0          0
0                684.88     0          0          0          0
0                685.49     0          0          0          0
0                685.65     0          0          0          0
0                682.75     0          0          0          0
0                688.85     0          0          0          0
0                689.30     0          0          0          0
0                686.41     0          0          0          0
0                682.44     0          0          0          0
0                683.21     0          0          0          0
0                682.44     0          0          0          0
0                681.23     0          0          0          0
0                681.23     0          0          0          0
0                681.23     0          0          0          0
0                681.38     0          0          0          0
0                681.84     0          0          0          0
0                681.23     0          0          0          0
0                686.25     0          0          0          0
0                685.65     0          0          0          0
0                683.36     0          0          0          0
0                683.21     0          0          0          0
0                694.00     0          0          0          0
0                688.60     0          0          0          0
0                0          0          0          0          0
0                0          0          0          0          0
0                0          0          0          0          0
0                0          0          0          0          0
0                0          0          0          0          0
0                0          0          0          0          0
0                0          0          0          0          0
0                0          0          0          0          0
0                0          0          0          0          0
0                0          0          0          0          0
0                0          0          0          0          0
0                0          0          0          0          0
0                0          0          0          0          0
0                0          0          0          0          0
0                0          0          0          0          0
0                0          0          0          0          0
0                0          0          0          0          0
0                0          0          0          0          0
0                0          0          0          0          0
0                0          0          0          0          0
0                0          0          0          0          0
0                0          0          0          0          0
0                0          0          0          0          0
0                0          0          0          0          0
0                0          0          0          0          0
0                0          0          0          0          0
0                0          0          0          0          0
0                0          0          0          0          0
0                0          0          0          0          0
0                0          0          0          0          0
0                0          0          0          0          0
0                0          0          0          0          0
0                0          0          0          0          0
0                0          0          0          0          0
0                0          0          0          0          0
0                0          0          0          0          0
0                0          0          0          0          0
0                0          0          0          0          0
0                0          0          0          0          0
0                0          0          0          0          0

[CONDUITS]
;;Name           From             To               Length     Roughness  InOffset   OutOffset  InitFlow   MaxFlow
;;-------------- ---------------- ---------------- ---------- ---------- ---------- ---------- ---------- ----------
526              0                0                270.36     0.0150     694.64     693.67     0          0
527              0                0                154.78     0.0150     691.80     689.88     0          0
529              0                0                217.93     0.0150     689.88     689.23     0          0
1156N2.1         0                0                18.00      0.0150     685.23     684.43     0          0
533              0                0                79.14      0.0110     684.65     684.42     0          0
537              0                0                248.41     0.0150     684.27     683.52     0          0
539              0                0                210.92     0.0150     682.73     682.31     0          0
541              0                0                67.06      0.0100     682.31     682.18     0          0
543              0                0                162.15     0.0150     682.18     680.16     0          0
545              0                0                235.00     0.0150     680.13     679.62     0          0
547              0                0                304.19     0.0150     679.59     678.98     0          0
549              0                0                95.43      0.0120     678.98     676.90     0          0
551              0                0                112.88     0.0120     676.90     676.65     0          0
553              0                0                66.14      0.0100     676.60     676.40     0          0
555              0                0                108.51     0.0130     676.40     676.31     0          0
557              0                0                116.74     0.0130     676.30     676.15     0          0
561              0                0                120.40     0.0130     678.12     677.83     0          0
559              0                0                84.70      0.0110     676.15     676.04     0          0
563              0                0                103.63     0.0120     676.04     675.90     0          0
565              0                0                95.10      0.0120     675.90     675.61     0          0
567              0                0                94.79      0.0120     675.61     675.31     0          0
569              0                0                49.68      0.0080     675.31     675.16     0          0
571              0                0                108.20     0.0130     675.16     674.82     0          0
573              0                0                81.38      0.0110     674.82     674.76     0          0
575              0                0                476.10     0.0150     674.76     673.78     0          0
626              0                0                13.70      0.0150     678.20     678.26     0          0
577              0                0                416.05     0.0150     673.78     672.90     0          0
581              0                0                87.02      0.0110     672.86     672.53     0          0
587              0                0                136.09     0.0140     674.40     673.91     0          0
588              0                0                170.99     0.0150     673.55     673.22     0          0
590              0                0                91.44      0.0120     673.14     672.71     0          0
593              0                0                97.38      0.0120     672.68     672.60     0          0
585              0                0                349.91     0.0150     672.18     671.59     0          0
598              0                0                362.41     0.0150     690.53     686.22     0          0
599              0                0                148.13     0.0150     684.41     684.23     0          0
601              0                0                204.52     0.0150     683.12     681.87     0          0
603              0                0                160.02     0.0150     681.81     681.34     0          0
605              0                0                465.43     0.0150     681.20     680.14     0          0
607              0                0                86.56      0.0110     680.14     680.13     0          0
609              0                0                87.93      0.0110     679.67     679.28     0          0
611              0                0                145.39     0.0150     678.00     677.21     0          0
613              0                0                204.22     0.0264     677.21     673.72     0          0
619              0                0                129.22     0.0140     681.46     680.98     0          0
620              0                0                320.65     0.0150     680.94     679.77     0          0
622              0                0                394.41     0.0150     679.77     677.78     0          0
624              0                0                150.57     0.0150     676.27     675.80     0          0
626              0                0                145.09     0.0150     675.80     675.52     0          0
629              0                0                137.92     0.0140     675.52     674.60     0          0
617              0                0                376.73     0.0150     673.72     673.10     0          0
632              0                0                110.03     0.0130     673.10     672.09     0          0
596              0                0                64.49      0.0100     671.17     671.14     0          0
635              0                0                201.00     0.0150     671.14     670.90     0          0
637              0                0                202.00     0.0150     670.88     670.18     0          0
641              0                0                100.58     0.0120     675.65     670.18     0          0
639              0                0                194.00     0.0150     670.18     669.96     0          0
645              0                0                180.44     0.0150     681.07     680.59     0          0
646              0                0                304.80     0.0150     679.38     678.28     0          0
648              0                0                320.34     0.0337     678.28     669.96     0          0
643              0                0                248.00     0.0150     669.96     669.50     0          0
1153N1A          0                0                110.00     0.0015     689.26     689.26     0          0
1153N1B          0                0                39.00      0.1250     689.57     685.23     0          0
531              0                0                110.00     0.0019     689.88     689.26     0          0
581              0                0                96.00      0.0217     677.35     673.14     0          0
122871081        ?                0                41.00      0.0150     0          0          0          0
123061081        ?                0                101.00     0.0150     0          0          0          0
123271071        ?                0                153.00     0.0150     0          0          0          0
123471051        ?                0                229.00     0.0150     0          0          0          0
123671001        ?                0                222.00     0.0150     0          0          0          0
12387991         ?                0                190.00     0.0150     0          0          0          0
12407981         ?                0                117.00     0.0150     0          0          0          0
12427971         ?                0                133.00     0.0150     0          0          0          0
12447831         ?                0                103.00     0.0150     0          0          0          0
12467841         ?                0                72.00      0.0150     0          0          0          0
12487851         ?                0                97.00      0.0150     0          0          0          0
12507861         ?                0                172.00     0.0150     0          0          0          0
12527891         ?                0                70.00      0.0150     0          0          0          0
12547921         ?                0                129.00     0.0150     0          0          0          0
125671031        ?                0                91.00      0.0150     0          0          0          0
12587941         ?                0                108.00     0.0150     0          0          0          0
12607951         ?                0                91.00      0.0150     0          0          0          0
126279531        ?                0                138.00     0.0150     0          0          0          0
126469531        ?                0                105.00     0.0150     0          0          0          0
126661071        ?                0                105.00     0.0150     0          0          0          0

[ORIFICES]
;;Name           From             To               Type       Offset     Qcoeff     Gated    CloseTime
;;-------------- ---------------- ---------------- ---------- ---------- ---------- -------- ----------
122971080        ?                0                SIDE       0          0.650      NO       0
123161080        ?                0                SIDE       0          0.650      NO       0
123371070        ?                0                SIDE       0          0.650      NO       0
123561051        ?                0                SIDE       0          0.650      NO       0
123771000        ?                0                SIDE       0          0.650      NO       0
12397990         ?                0                SIDE       0          0.650      NO       0
12417980         ?                0                SIDE       0          0.650      NO       0
12437970         ?                0                SIDE       0          0.650      NO       0
12457830         ?                0                SIDE       0          0.650      NO       0
12477840         ?                0                SIDE       0          0.650      NO       0
12497850         ?                0                SIDE       0          0.650      NO       0
12517860         ?                0                SIDE       0          0.650      NO       0
12537890         ?                0                SIDE       0          0.650      NO       0
12557920         ?                0                SIDE       0          0.650      NO       0
125771030        ?                0                SIDE       0          0.650      NO       0
12597940         ?                0                SIDE       0          0.650      NO       0
12617950         ?                0                SIDE       0          0.650      NO       0
126379530        ?                0                SIDE       0          0.650      NO       0
126569530        ?                0                SIDE       0          0.650      NO       0
126761070        ?                0                SIDE       0          0.650      NO       0

[XSECTIONS]
;;Link           Shape        Geom1      Geom2      Geom3      Geom4      Barrels
;;-------------- ------------ ---------- ---------- ---------- ---------- ----------
526              CIRCULAR     1.05       0          0          0          1
527              CIRCULAR     1.05       0          0          0          1
529              CIRCULAR     1.05       0          0          0          1
1156N2.1         RECT_CLOSED  1.22       1.22       0          0          1
533              CIRCULAR     1.05       0          0          0          1
537              CIRCULAR     1.20       0          0          0          1
539              CIRCULAR     1.35       0          0          0          1
541              CIRCULAR     1.35       0          0          0          1
543              CIRCULAR     1.35       0          0          0          1
545              CIRCULAR     1.35       0          0          0          1
547              CIRCULAR     1.35       0          0          0          1
549              CIRCULAR     1.35       0          0          0          1
551              CIRCULAR     1.35       0          0          0          1
553              CIRCULAR     1.35       0          0          0          1
555              CIRCULAR     1.35       0          0          0          1
557              CIRCULAR     1.35       0          0          0          1
561              CIRCULAR     1.05       0          0          0          1
559              CIRCULAR     1.35       0          0          0          1
563              CIRCULAR     1.35       0          0          0          1
565              CIRCULAR     1.35       0          0          0          1
567              CIRCULAR     1.35       0          0          0          1
569              CIRCULAR     1.35       0          0          0          1
571              CIRCULAR     1.35       0          0          0          1
573              CIRCULAR     1.35       0          0          0          1
575              CIRCULAR     1.35       0          0          0          1
626              CIRCULAR     0.75       0          0          0          1
577              CIRCULAR     1.35       0          0          0          1
581              CIRCULAR     1.35       0          0          0          1
587              CIRCULAR     1.05       0          0          0          1
588              CIRCULAR     1.35       0          0          0          1
590              CIRCULAR     1.35       0          0          0          1
593              CIRCULAR     1.35       0          0          0          1
585              CIRCULAR     1.95       0          0          0          1
598              CIRCULAR     0.90       0          0          0          1
599              CIRCULAR     1.05       0          0          0          1
601              CIRCULAR     1.05       0          0          0          1
603              CIRCULAR     1.20       0          0          0          1
605              CIRCULAR     1.20       0          0          0          1
607              CIRCULAR     1.20       0          0          0          1
609              CIRCULAR     1.20       0          0          0          1
611              CIRCULAR     1.20       0          0          0          1
613              CIRCULAR     1.20       0          0          0          1
619              CIRCULAR     1.05       0          0          0          1
620              CIRCULAR     1.05       0          0          0          1
622              CIRCULAR     1.05       0          0          0          1
624              CIRCULAR     1.05       0          0          0          1
626              CIRCULAR     1.20       0          0          0          1
629              CIRCULAR     1.20       0          0          0          1
617              CIRCULAR     1.95       0          0          0          1
632              CIRCULAR     1.95       0          0          0          1
596              HORSESHOE    3.17       1.95       0          0          1
635              HORSESHOE    3.17       1.95       0          0          1
637              HORSESHOE    3.17       1.95       0          0          1
641              CIRCULAR     1.05       0          0          0          1
639              HORSESHOE    3.17       1.95       0          0          1
645              CIRCULAR     0.90       0          0          0          1
646              CIRCULAR     0.90       0          0          0          1
648              CIRCULAR     0.90       0          0          0          1
643              HORSESHOE    3.17       1.95       0          0          1
1153N1A          CIRCULAR     0.20       0          0          0          1
1153N1B          HORSESHOE    1.75       1.37       0          0          1
531              CIRCULAR     1.05       0          0          0          1
581              CIRCULAR     0.25       0          0          0          1
122871081        TRAPEZOIDAL  0.50       9.00       0          0          1
123061081        TRAPEZOIDAL  0.50       9.00       0          0          1
123271071        TRAPEZOIDAL  0.50       9.00       0          0          1
123471051        TRAPEZOIDAL  0.50       9.00       0          0          1
123671001        TRAPEZOIDAL  0.50       14.00      0          0          1
12387991         TRAPEZOIDAL  0.50       9.00       0          0          1
12407981         TRAPEZOIDAL  0.50       9.00       0          0          1
12427971         TRAPEZOIDAL  0.50       14.00      0          0          1
12447831         TRAPEZOIDAL  0.50       9.00       0          0          1
12467841         TRAPEZOIDAL  0.50       9.00       0          0          1
12487851         TRAPEZOIDAL  0.50       11.50      0          0          1
12507861         TRAPEZOIDAL  0.50       11.50      0          0          1
12527891         TRAPEZOIDAL  0.50       11.50      0          0          1
12547921         TRAPEZOIDAL  0.50       14.00      0          0          1
125671031        TRAPEZOIDAL  0.50       9.00       0          0          1
12587941         TRAPEZOIDAL  0.50       11.50      0          0          1
12607951         TRAPEZOIDAL  0.50       9.00       0          0          1
126279531        TRAPEZOIDAL  0.50       14.00      0          0          1
126469531        TRAPEZOIDAL  0.50       43.00      0          0          1
126661071        TRAPEZOIDAL  0.50       47.00      0          0          1
122971080        RECT_CLOSED  0.50       0          0          0          
123161080        RECT_CLOSED  0.50       0          0          0          
123371070        RECT_CLOSED  0.50       0          0          0          
123561051        RECT_CLOSED  0.50       0          0          0          
123771000        RECT_CLOSED  0.50       0          0          0          
12397990         RECT_CLOSED  0.50       0          0          0          
12417980         RECT_CLOSED  0.50       0          0          0          
12437970         RECT_CLOSED  0.50       0          0          0          
12457830         RECT_CLOSED  0.50       0          0          0          
12477840         RECT_CLOSED  0.50       0          0          0          
12497850         RECT_CLOSED  0.50       0          0          0          
12517860         RECT_CLOSED  0.50       0          0          0          
12537890         RECT_CLOSED  0.50       0          0          0          
12557920         RECT_CLOSED  0.50       0          0          0          
125771030        RECT_CLOSED  0.50       0          0          0          
12597940         RECT_CLOSED  0.50       0          0          0          
12617950         RECT_CLOSED  0.50       0          0          0          
126379530        RECT_CLOSED  0.50       0          0          0          
126569530        RECT_CLOSED  0.50       0          0          0          
126761070        RECT_CLOSED  0.50       0          0          0          

[LOSSES]
;;Link           Inlet      Outlet     Average    Flap Gate
;;-------------- ---------- ---------- ---------- ----------
526              0          0          0          NO
527              0          0          0          NO
529              0          0          0          NO
1156N2.1         0          0          0          NO
533              0          0          0          NO
537              0          0          0          NO
539              0          0          0          NO
541              0          0          0          NO
543              0          0          0          NO
545              0          0          0          NO
547              0          0          0          NO
549              0          0          0          NO
551              0          0          0          NO
553              0          0          0          NO
555              0          0          0          NO
557              0          0          0          NO
561              0          0          0          NO
559              0          0          0          NO
563              0          0          0          NO
565              0          0          0          NO
567              0          0          0          NO
569              0          0          0          NO
571              0          0          0          NO
573              0          0          0          NO
575              0          0          0          NO
626              0          0          0          NO
577              0          0          0          NO
581              0          0          0          NO
587              0          0          0          NO
588              0          0          0          NO
590              0          0          0          NO
593              0          0          0          NO
585              0          0          0          NO
598              0          0          0          NO
599              0          0          0          NO
601              0          0          0          NO
603              0          0          0          NO
605              0          0          0          NO
607              0          0          0          NO
609              0          0          0          NO
611              0          0          0          NO
613              0          0          0          NO
619              0          0          0          NO
620              0          0          0          NO
622              0          0          0          NO
624              0          0          0          NO
626              0          0          0          NO
629              0          0          0          NO
617              0          0          0          NO
632              0          0          0          NO
596              0          0          0          NO
635              0          0          0          NO
637              0          0          0          NO
641              0          0          0          NO
639              0          0          0          NO
645              0          0          0          NO
646              0          0          0          NO
648              0          0          0          NO
643              0          0          0          NO
1153N1A          0          0          0          NO
1153N1B          0          0          0          NO
531              0          0          0          NO
581              0          0          0          NO