;; SWMM5 .inp converted from XPSWMM .xp file
;; Generated by XPSWMM Card Reader
;; Source format: XP_CARD | Original title: Lexington Expansion Area 2A, B, and C

[TITLE]
;;Project Title/Notes
Lexington Expansion Area 2A, B, and C

[OPTIONS]
FLOW_UNITS           CFS
INFILTRATION         HORTON
FLOW_ROUTING         DYNWAVE
LINK_OFFSETS         DEPTH
MIN_SLOPE            0.0
ALLOW_PONDING        NO
SKIP_STEADY_STATE    NO
ROUTING_STEP         00:00:15
VARIABLE_STEP        0.75
INERTIAL_DAMPING     PARTIAL
NORMAL_FLOW_LIMITED  BOTH
MAX_TRIALS           50

[JUNCTIONS]
;;Name           Elev       MaxDepth   InitDepth  SurDepth   Aponded
;;-------------- ---------- ---------- ---------- ---------- ----------
b1004            1016.00    0          0          0          0
b1005            1037.00    0          0          0          0
b1006            1009.00    0          0          0          0
b1007            1033.00    0          0          0          0
b1008            1022.00    0          0          0          0
b1011            1073.00    0          0          0          0
b1012            1019.00    0          0          0          0
b101i            1071.00    0          0          0          0
b102i            1036.00    0          0          0          0
b103i            1071.00    0          0          0          0
b104i            1034.00    0          0          0          0
b105i            1081.00    0          0          0          0
b106i            1054.00    0          0          0          0
b107i            1075.00    0          0          0          0
b108i            1036.00    0          0          0          0
b109i            1045.00    0          0          0          0
b110i            1038.00    0          0          0          0
b111i            1074.00    0          0          0          0
b112i            1040.00    0          0          0          0
b113i            1045.00    0          0          0          0
b2001            1035.00    0          0          0          0
b2002            1052.00    0          0          0          0
b2003            1026.00    0          0          0          0
b2004            1047.00    0          0          0          0
b2005            1020.00    0          0          0          0
b2006            1043.00    0          0          0          0
b201i            1052.00    0          0          0          0
b202i            1068.00    0          0          0          0
b203i            1046.00    0          0          0          0
b204i            1074.00    0          0          0          0
b205i            1054.00    0          0          0          0
b206i            1073.00    0          0          0          0
b207i            1048.00    0          0          0          0
b208i            1058.00    0          0          0          0
b209i            1038.00    0          0          0          0
b210i            1077.00    0          0          0          0
b3002            1024.00    0          0          0          0
b3003            1046.00    0          0          0          0
b3004            1017.00    0          0          0          0
b3005            1037.00    0          0          0          0
b3006            1010.00    0          0          0          0
b3007            1031.00    0          0          0          0
b3008            1000.00    0          0          0          0
b3010            1020.00    0          0          0          0
b301i            1051.00    0          0          0          0
b302i            1077.00    0          0          0          0
b303i            1048.00    0          0          0          0
b304i            1075.00    0          0          0          0
b305i            1046.00    0          0          0          0
b306i            1067.00    0          0          0          0
b307i            1040.00    0          0          0          0
b308i            1057.00    0          0          0          0
b309i            1026.00    0          0          0          0
b310i            1047.00    0          0          0          0
b4001            1004.00    0          0          0          0
b4002            1028.00    0          0          0          0
b4009            995.00     0          0          0          0
b4011            1014.00    0          0          0          0
b4012            1000.00    0          0          0          0
b4013            1042.00    0          0          0          0
b4014            1025.00    0          0          0          0
b4015            1044.00    0          0          0          0
b4016            1050.00    0          0          0          0
b4017            1041.00    0          0          0          0
b4018            997.00     0          0          0          0
b401i            1069.00    0          0          0          0
b402i            1028.00    0          0          0          0
b403i            1053.00    0          0          0          0
b404i            1058.00    0          0          0          0
b405i            1069.00    0          0          0          0
b406i            1054.00    0          0          0          0
b407i            1058.00    0          0          0          0
b408i            1022.00    0          0          0          0
b409i            1049.00    0          0          0          0
b410i            1026.00    0          0          0          0
b411i            1075.00    0          0          0          0
b412i            1038.00    0          0          0          0
b413i            1049.00    0          0          0          0
b414i            1024.00    0          0          0          0
b415i            1056.00    0          0          0          0
b416i            1022.00    0          0          0          0
b417i            1045.00    0          0          0          0
b418i            1020.00    0          0          0          0

[STORAGE]
;;Name           Elev       MaxDepth   InitDepth  Shape      Curve/Params
;;-------------- ---------- ---------- ---------- ---------- ----------
b1001            1057.00    -15.50     6.00       FUNCTIONAL 0 0          0
b1003            1049.00    -16.60     6.00       FUNCTIONAL 0 0          0
b1009            1059.00    -14.50     4.00       FUNCTIONAL 0 0          0
b1010            1047.00    -19.30     4.00       FUNCTIONAL 0 0          0
b2007            1037.00    -17.50     0          FUNCTIONAL 0 0          0
b3001            1056.00    -18.40     4.00       FUNCTIONAL 0 0          0
b3009            1022.00    -18.60     0          FUNCTIONAL 0 0          0
b4003            1027.00    -19.60     0          FUNCTIONAL 0 0          0
b4004            1041.00    -22.00     0          FUNCTIONAL 0 0          0
b4005            1054.00    -17.00     4.00       FUNCTIONAL 0 0          0
b4006            1026.00    -17.50     3.00       FUNCTIONAL 0 0          0
b4007            1024.00    -17.80     3.00       FUNCTIONAL 0 0          0
b4008            1021.00    -19.00     0          FUNCTIONAL 0 0          0
b4010            1015.00    -11.50     0          FUNCTIONAL 0 0          0

[CONDUITS]
;;Name           From             To               Length     Roughness  InOffset   OutOffset  InitFlow   MaxFlow
;;-------------- ---------------- ---------------- ---------- ---------- ---------- ---------- ---------- ----------
b10001           b1001            b1003            170.00     0.0500     1032.00    1024.00    0          0
b10002           b1003            b1004            163.10     0.0500     1024.00    1016.00    0          0
b10003           b1004            b1005            441.70     0.0500     1016.00    1012.00    0          0
b10004           b1005            b1006            279.60     0.0500     1012.00    1009.00    0          0
b10005           b1006            b1007            170.50     0.0500     1009.00    1008.00    0          0
b10006           b1008            b1007            482.50     0.0350     1022.00    1008.00    0          0
b10007           b1009            b1008            437.70     0.0350     1034.00    1022.00    0          0
b10008           b1007            b4001            512.00     0.0500     1008.00    1004.00    0          0
b10009           b1011            b1010            1398.40    0.0300     1048.00    1022.00    0          0
b10010           b1010            b1004            218.90     0.0300     1022.00    1016.00    0          0
b10011           b1012            b1005            187.90     0.0320     1019.00    1012.00    0          0
b101c            b101i            b1001            875.00     0.0320     1046.00    1032.00    0          0
b102c            b102i            b1001            380.00     0.0320     1036.00    1032.00    0          0
b103c            b103i            b1003            1300.00    0.0320     1046.00    1024.00    0          0
b104c            b104i            b1003            195.00     0.0320     1034.00    1024.00    0          0
b105c            b105i            b1011            306.50     0.0320     1056.00    1048.00    0          0
b106c            b106i            b1010            1266.80    0.0320     1054.00    1022.00    0          0
b107c            b107i            b1004            1469.60    0.0320     1050.00    1016.00    0          0
b108c            b108i            b1012            574.10     0.0320     1036.00    1019.00    0          0
b109c            b109i            b1005            199.50     0.0300     1020.00    1012.00    0          0
b110c            b110i            b1006            431.40     0.0320     1038.00    1009.00    0          0
b111c            b111i            b1009            315.00     0.0320     1049.00    1034.00    0          0
b112c            b112i            b1008            618.60     0.0320     1040.00    1022.00    0          0
b113c            b113i            b1007            375.20     0.0320     1020.00    1008.00    0          0
b20001           b2001            b2002            431.70     0.0500     1035.00    1027.00    0          0
b20002           b2002            b2003            66.50      0.0500     1027.00    1026.00    0          0
b20003           b2003            b2004            332.60     0.0500     1026.00    1022.00    0          0
b20004           b2004            b2005            263.50     0.0500     1022.00    1020.00    0          0
b20005           b2005            b2006            500.60     0.0500     1020.00    1018.00    0          0
b20006           b2006            b2007            431.60     0.0500     1018.00    1012.00    0          0
b20007           b2007            b4001            638.10     0.0500     1012.00    1004.00    0          0
b201c            b201i            b2001            661.20     0.0320     1052.00    1035.00    0          0
b202c            b202i            b2001            423.50     0.0320     1043.00    1035.00    0          0
b203c            b203i            b2002            710.90     0.0320     1046.00    1027.00    0          0
b204c            b204i            b2003            602.10     0.0320     1049.00    1026.00    0          0
b205c            b205i            b2002            1015.00    0.0320     1054.00    1027.00    0          0
b206c            b206i            b2004            518.40     0.0320     1048.00    1022.00    0          0
b207c            b207i            b2005            1044.00    0.0320     1048.00    1020.00    0          0
b208c            b208i            b2006            553.90     0.0320     1033.00    1018.00    0          0
b209c            b209i            b2006            670.60     0.0320     1038.00    1018.00    0          0
b210c            b210i            b4001            1704.00    0.0320     1052.00    1004.00    0          0
b30001           b3001            b3002            224.30     0.0350     1031.00    1024.00    0          0
b30002           b3002            b3003            239.40     0.0350     1024.00    1021.00    0          0
b30003           b3003            b3004            332.20     0.0400     1021.00    1017.00    0          0
b30004           b3004            b3005            551.80     0.0400     1017.00    1012.00    0          0
b30005           b3005            b3006            190.30     0.0350     1012.00    1010.00    0          0
b30006           b3006            b3007            384.50     0.0350     1010.00    1006.00    0          0
b30007           b3007            b3008            826.50     0.0350     1006.00    1000.00    0          0
b30008           b3008            b3009            206.00     0.0350     1000.00    997.00     0          0
b30009           b3009            b3010            270.30     0.0200     997.00     995.00     0          0
b30010           b3010            b4012            626.80     0.0350     995.00     987.00     0          0
b301c            b301i            b3001            610.00     0.0320     1051.00    1031.00    0          0
b302c            b302i            b3002            972.60     0.0320     1052.00    1024.00    0          0
b303c            b303i            b3003            1064.00    0.0320     1048.00    1021.00    0          0
b304c            b304i            b3004            749.60     0.0320     1050.00    1017.00    0          0
b305c            b305i            b3004            733.50     0.0320     1046.00    1017.00    0          0
b306c            b306i            b3005            789.30     0.0320     1042.00    1012.00    0          0
b307c            b307i            b3006            880.00     0.0320     1040.00    1010.00    0          0
b308c            b308i            b3007            484.40     0.0320     1032.00    1006.00    0          0
b309c            b309i            b3007            251.20     0.0320     1026.00    1006.00    0          0
b310c            b310i            b3008            622.20     0.0320     1022.00    1000.00    0          0
b40001           b4001            b4002            130.20     0.0500     1004.00    1003.00    0          0
b40002           b4002            b4003            209.40     0.0500     1003.00    1002.00    0          0
b40003           b4004            b4003            343.60     0.0350     1016.00    1002.00    0          0
b40004           b4005            b4004            277.80     0.0350     1029.00    1016.00    0          0
b40005           b4003            b4006            200.00     0.0350     1002.00    1001.00    0          0
b40006           b4006            b4007            365.00     0.0350     1001.00    999.00     0          0
b40007           b4018            b4008            207.90     0.0500     997.00     996.00     0          0
b40008           b4008            b4009            131.90     0.0500     996.00     995.00     0          0
b40009           b4009            b4010            634.40     0.0500     995.00     990.00     0          0
b40010           b4010            b4011            257.80     0.0020     990.00     989.00     0          0
b40011           b4011            b4012            325.50     0.0350     989.00     987.00     0          0
b40012           b4013            b4002            903.10     0.0300     1017.00    1003.00    0          0
b40013           b4014            b4013            340.50     0.0300     1025.00    1017.00    0          0
b40014           b4015            b4013            125.10     0.0300     1019.00    1017.00    0          0
b40015           b4016            b4015            1126.10    0.0300     1050.00    1019.00    0          0
b40016           b4007            b4018            195.50     0.0400     999.00     997.00     0          0
b40017           b4017            b4008            920.80     0.0300     1016.00    996.00     0          0
b401c            b401i            b4005            425.00     0.0320     1044.00    1029.00    0          0
b402c            b402i            b4004            219.80     0.0320     1028.00    1016.00    0          0
b403c            b403i            b4003            530.00     0.0320     1028.00    1002.00    0          0
b404c            b404i            b4016            206.50     0.0320     1058.00    1050.00    0          0
b405c            b405i            b4015            1434.90    0.0320     1044.00    1019.00    0          0
b406c            b406i            b4014            724.10     0.0320     1054.00    1025.00    0          0
b407c            b407i            b4002            906.10     0.0320     1033.00    1003.00    0          0
b408c            b408i            b4006            295.00     0.0320     1022.00    1001.00    0          0
b409c            b409i            b4007            748.90     0.0320     1024.00    999.00     0          0
b410c            b410i            b4018            696.50     0.0320     1026.00    997.00     0          0
b411c            b411i            b4017            859.20     0.0320     1050.00    1016.00    0          0
b412c            b412i            b4017            427.10     0.0320     1038.00    1016.00    0          0
b413c            b413i            b4008            796.00     0.0320     1024.00    996.00     0          0
b414c            b414i            b4018            261.20     0.0320     1024.00    997.00     0          0
b415c            b415i            b4009            1582.60    0.0320     1031.00    995.00     0          0
b416c            b416i            b4009            638.10     0.0320     1022.00    995.00     0          0
b417c            b417i            b4010            1162.00    0.0320     1020.00    990.00     0          0
b418c            b418i            b4011            1252.40    0.0320     1020.00    989.00     0          0

[XSECTIONS]
;;Link           Shape        Geom1      Geom2      Geom3      Geom4      Barrels
;;-------------- ------------ ---------- ---------- ---------- ---------- ----------
b10001           TRAPEZOIDAL  3.00       5.00       0          0          1
b10002           IRREGULAR    0          0          0          0          1
b10003           IRREGULAR    0          0          0          0          1
b10004           IRREGULAR    0          0          0          0          1
b10005           IRREGULAR    0          0          0          0          1
b10006           TRAPEZOIDAL  3.00       4.00       0          0          1
b10007           TRAPEZOIDAL  3.00       4.00       0          0          1
b10008           IRREGULAR    0          0          0          0          1
b10009           TRAPEZOIDAL  1.00       5.00       0          0          1
b10010           TRAPEZOIDAL  2.00       8.00       0          0          1
b10011           TRAPEZOIDAL  4.00       0          0          0          1
b101c            TRAPEZOIDAL  4.00       0          0          0          1
b102c            TRAPEZOIDAL  4.00       0          0          0          1
b103c            TRAPEZOIDAL  4.00       0          0          0          1
b104c            TRAPEZOIDAL  4.00       0          0          0          1
b105c            TRAPEZOIDAL  4.00       0          0          0          1
b106c            TRAPEZOIDAL  4.00       0          0          0          1
b107c            TRAPEZOIDAL  4.00       0          0          0          1
b108c            TRAPEZOIDAL  4.00       0          0          0          1
b109c            TRAPEZOIDAL  4.00       0          0          0          1
b110c            TRAPEZOIDAL  4.00       0          0          0          1
b111c            TRAPEZOIDAL  4.00       0          0          0          1
b112c            TRAPEZOIDAL  4.00       0          0          0          1
b113c            TRAPEZOIDAL  4.00       0          0          0          1
b20001           IRREGULAR    0          0          0          0          1
b20002           IRREGULAR    0          0          0          0          1
b20003           IRREGULAR    0          0          0          0          1
b20004           IRREGULAR    0          0          0          0          1
b20005           IRREGULAR    0          0          0          0          1
b20006           IRREGULAR    0          0          0          0          1
b20007           IRREGULAR    0          0          0          0          1
b201c            TRAPEZOIDAL  4.00       0          0          0          1
b202c            TRAPEZOIDAL  4.00       0          0          0          1
b203c            TRAPEZOIDAL  4.00       0          0          0          1
b204c            TRAPEZOIDAL  4.00       0          0          0          1
b205c            TRAPEZOIDAL  4.00       0          0          0          1
b206c            TRAPEZOIDAL  4.00       0          0          0          1
b207c            TRAPEZOIDAL  4.00       0          0          0          1
b208c            TRAPEZOIDAL  4.00       0          0          0          1
b209c            TRAPEZOIDAL  4.00       0          0          0          1
b210c            TRAPEZOIDAL  4.00       0          0          0          1
b30001           TRAPEZOIDAL  2.00       8.00       0          0          1
b30002           IRREGULAR    0          0          0          0          1
b30003           IRREGULAR    0          0          0          0          1
b30004           IRREGULAR    0          0          0          0          1
b30005           IRREGULAR    0          0          0          0          1
b30006           IRREGULAR    0          0          0          0          1
b30007           IRREGULAR    0          0          0          0          1
b30008           IRREGULAR    0          0          0          0          1
b30009           RECT_CLOSED  4.00       5.00       0          0          1
b30010           TRAPEZOIDAL  10.00      10.00      0          0          1
b301c            TRAPEZOIDAL  4.00       0          0          0          1
b302c            TRAPEZOIDAL  4.00       0          0          0          1
b303c            TRAPEZOIDAL  4.00       0          0          0          1
b304c            TRAPEZOIDAL  4.00       0          0          0          1
b305c            TRAPEZOIDAL  4.00       0          0          0          1
b306c            TRAPEZOIDAL  4.00       0          0          0          1
b307c            TRAPEZOIDAL  4.00       0          0          0          1
b308c            TRAPEZOIDAL  4.00       0          0          0          1
b309c            TRAPEZOIDAL  4.00       0          0          0          1
b310c            TRAPEZOIDAL  4.00       0          0          0          1
b40001           IRREGULAR    0          0          0          0          1
b40002           IRREGULAR    0          0          0          0          1
b40003           TRAPEZOIDAL  3.00       4.00       0          0          1
b40004           TRAPEZOIDAL  3.00       4.00       0          0          1
b40005           IRREGULAR    0          0          0          0          1
b40006           IRREGULAR    0          0          0          0          1
b40007           IRREGULAR    0          0          0          0          1
b40008           IRREGULAR    0          0          0          0          1
b40009           IRREGULAR    0          0          0          0          1
b40010           RECT_CLOSED  5.00       10.00      0          0          1
b40011           TRAPEZOIDAL  10.00      10.00      0          0          1
b40012           TRAPEZOIDAL  2.50       11.00      0          0          1
b40013           TRAPEZOIDAL  1.50       6.00       0          0          1
b40014           TRAPEZOIDAL  2.00       9.00       0          0          1
b40015           TRAPEZOIDAL  1.00       5.00       0          0          1
b40016           IRREGULAR    0          0          0          0          1
b40017           TRAPEZOIDAL  2.00       8.00       0          0          1
b401c            TRAPEZOIDAL  4.00       0          0          0          1
b402c            TRAPEZOIDAL  4.00       0          0          0          1
b403c            TRAPEZOIDAL  4.00       0          0          0          1
b404c            TRAPEZOIDAL  4.00       0          0          0          1
b405c            TRAPEZOIDAL  4.00       0          0          0          1
b406c            TRAPEZOIDAL  4.00       0          0          0          1
b407c            TRAPEZOIDAL  4.00       0          0          0          1
b408c            TRAPEZOIDAL  4.00       0          0          0          1
b409c            TRAPEZOIDAL  4.00       0          0          0          1
b410c            TRAPEZOIDAL  4.00       0          0          0          1
b411c            TRAPEZOIDAL  4.00       0          0          0          1
b412c            TRAPEZOIDAL  4.00       0          0          0          1
b413c            TRAPEZOIDAL  4.00       0          0          0          1
b414c            TRAPEZOIDAL  4.00       0          0          0          1
b415c            TRAPEZOIDAL  4.00       0          0          0          1
b416c            TRAPEZOIDAL  4.00       0          0          0          1
b417c            TRAPEZOIDAL  4.00       0          0          0          1
b418c            TRAPEZOIDAL  4.00       0          0          0          1

[LOSSES]
;;Link           Inlet      Outlet     Average    Flap Gate
;;-------------- ---------- ---------- ---------- ----------
b10001           0          0          0          NO
b10002           0          0          0          NO
b10003           0          0          0          NO
b10004           0          0          0          NO
b10005           0          0          0          NO
b10006           0          0          0          NO
b10007           0          0          0          NO
b10008           0          0          0          NO
b10009           0          0          0          NO
b10010           0          0          0          NO
b10011           0          0          0          NO
b101c            0          0          0          NO
b102c            0          0          0          NO
b103c            0          0          0          NO
b104c            0          0          0          NO
b105c            0          0          0          NO
b106c            0          0          0          NO
b107c            0          0          0          NO
b108c            0          0          0          NO
b109c            0          0          0          NO
b110c            0          0          0          NO
b111c            0          0          0          NO
b112c            0          0          0          NO
b113c            0          0          0          NO
b20001           0          0          0          NO
b20002           0          0          0          NO
b20003           0          0          0          NO
b20004           0          0          0          NO
b20005           0          0          0          NO
b20006           0          0          0          NO
b20007           0          0          0          NO
b201c            0          0          0          NO
b202c            0          0          0          NO
b203c            0          0          0          NO
b204c            0          0          0          NO
b205c            0          0          0          NO
b206c            0          0          0          NO
b207c            0          0          0          NO
b208c            0          0          0          NO
b209c            0          0          0          NO
b210c            0          0          0          NO
b30001           0          0          0          NO
b30002           0          0          0          NO
b30003           0          0          0          NO
b30004           0          0          0          NO
b30005           0          0          0          NO
b30006           0          0          0          NO
b30007           0          0          0          NO
b30008           0          0          0          NO
b30009           0          0          0          NO
b30010           0          0          0          NO
b301c            0          0          0          NO
b302c            0          0          0          NO
b303c            0          0          0          NO
b304c            0          0          0          NO
b305c            0          0          0          NO
b306c            0          0          0          NO
b307c            0          0          0          NO
b308c            0          0          0          NO
b309c            0          0          0          NO
b310c            0          0          0          NO
b40001           0          0          0          NO
b40002           0          0          0          NO
b40003           0          0          0          NO
b40004           0          0          0          NO
b40005           0          0          0          NO
b40006           0          0          0          NO
b40007           0          0          0          NO
b40008           0          0          0          NO
b40009           0          0          0          NO
b40010           0          0          0          NO
b40011           0          0          0          NO
b40012           0          0          0          NO
b40013           0          0          0          NO
b40014           0          0          0          NO
b40015           0          0          0          NO
b40016           0          0          0          NO
b40017           0          0          0          NO
b401c            0          0          0          NO
b402c            0          0          0          NO
b403c            0          0          0          NO
b404c            0          0          0          NO
b405c            0          0          0          NO
b406c            0          0          0          NO
b407c            0          0          0          NO
b408c            0          0          0          NO
b409c            0          0          0          NO