;; SWMM5 .inp converted from XPSWMM .xp file
;; Generated by XPSWMM Card Reader
;; Source format: XP_CARD | Original title: ALCOSAN DRY WEATHER   FREE OUTFALL AT WWTP (EL. 660)   NO GRIT, BEST Q, N E

[TITLE]
;;Project Title/Notes
ALCOSAN DRY WEATHER   FREE OUTFALL AT WWTP (EL. 660)   NO GRIT, BEST Q, N E

[OPTIONS]
FLOW_UNITS           CFS
INFILTRATION         HORTON
FLOW_ROUTING         DYNWAVE
LINK_OFFSETS         DEPTH
MIN_SLOPE            0.0
ALLOW_PONDING        NO
SKIP_STEADY_STATE    NO
ROUTING_STEP         00:00:05
VARIABLE_STEP        0.75
INERTIAL_DAMPING     NONE
NORMAL_FLOW_LIMITED  BOTH
MAX_TRIALS           100

[JUNCTIONS]
;;Name           Elev       MaxDepth   InitDepth  SurDepth   Aponded
;;-------------- ---------- ---------- ---------- ---------- ----------
O26-FO           712.00     0          0          0          0
M01-00           713.00     0          0          0          0
O43-04           734.30     0          0          0          0
M02-00           713.00     0          0          0          0
M03-00           712.60     0          0          0          0
M04-00           730.00     0          0          0          0
M05-00           738.00     0          0          0          0
M09-00           730.00     0          0          0          0
M11-00           728.00     0          0          0          0
M12-00           728.00     0          0          0          0
M13-00           713.00     0          0          0          0
M14-00           713.30     0          0          0          0
M15-00           720.60     0          0          0          0
M16-00           730.20     0          0          0          0
M17-00           717.90     0          0          0          0
M18-00           729.00     0          0          0          0
M19-00           733.70     0          0          0          0
M20-00           717.00     0          0          0          0
M21-00           721.30     0          0          0          0
M22-00           719.30     0          0          0          0
M23-00           716.50     0          0          0          0
M25-00           715.00     0          0          0          0
M24-00           711.30     0          0          0          0
M25-VOR          715.00     0          0          0          0
M26-00           707.70     0          0          0          0
M27-00           719.80     0          0          0          0
M29-00           750.00     0          0          0          0
M30-00           760.00     0          0          0          0
M46-00           762.50     0          0          0          0
M47-00           738.00     0          0          0          0
M48-00           748.50     0          0          0          0
M49-02           746.30     0          0          0          0
M49-01           718.00     0          0          0          0
M49-00           713.50     0          0          0          0
M50-00           744.70     0          0          0          0
M51-00           738.20     0          0          0          0
M52-00           736.00     0          0          0          0
M53-00           735.30     0          0          0          0
M54-00           736.70     0          0          0          0
M55-00           737.40     0          0          0          0
M56-00           735.10     0          0          0          0
M57-00           735.60     0          0          0          0
M58-00           735.60     0          0          0          0
M31-00           768.40     0          0          0          0
M31-02           771.30     0          0          0          0
M31-04           752.60     0          0          0          0
M33-00           717.80     0          0          0          0
M33-04           718.00     0          0          0          0
M34-00           710.00     0          0          0          0
M41-00           721.50     0          0          0          0
M42A02           718.00     0          0          0          0
M41SHFT          721.50     0          0          0          0
M42A00           715.40     0          0          0          0
O27-00           717.80     0          0          0          0
O28-00           711.80     0          0          0          0
O29-00           715.00     0          0          0          0
O30-00           721.40     0          0          0          0
O31-00           723.10     0          0          0          0
O32-00           713.00     0          0          0          0
O33-00           724.10     0          0          0          0
O34-00           729.10     0          0          0          0
O35-00           723.90     0          0          0          0
O36-00           719.80     0          0          0          0
O37-00           716.30     0          0          0          0
O38-00           711.60     0          0          0          0
O39-00           711.00     0          0          0          0
O40-00           721.00     0          0          0          0
O42-00           727.00     0          0          0          0
O14-00           719.00     0          0          0          0
O43-00           728.30     0          0          0          0
O43-02           725.10     0          0          0          0
A46-00           722.00     0          0          0          0
A47-00           712.00     0          0          0          0
A48-00           723.80     0          0          0          0
A49-00           715.80     0          0          0          0
A50-00           721.00     0          0          0          0
A51-00           716.00     0          0          0          0
A54-00           723.00     0          0          0          0
A55-00           711.60     0          0          0          0
A55-VOR          723.00     0          0          0          0
A56-00           715.50     0          0          0          0
A58-00           720.50     0          0          0          0
A59-00           722.10     0          0          0          0
A60-00           721.00     0          0          0          0
A61-00           720.00     0          0          0          0
A01-00           715.40     0          0          0          0
A02-00           715.70     0          0          0          0
A03-00           715.20     0          0          0          0
A04-00           717.10     0          0          0          0
A06-00           716.10     0          0          0          0
A07-00           716.10     0          0          0          0
A08-00           716.30     0          0          0          0
A09-00           716.50     0          0          0          0
A10-00           715.90     0          0          0          0
A11-00           718.70     0          0          0          0
A12-00           728.30     0          0          0          0
A13-00           730.70     0          0          0          0
A14-00           724.00     0          0          0          0
A15-00           727.00     0          0          0          0
A16-00           728.00     0          0          0          0
A17-00           731.00     0          0          0          0
A18-00           728.10     0          0          0          0
A19-00           731.20     0          0          0          0
A20-00           732.00     0          0          0          0
A21-00           732.40     0          0          0          0
A22-00           735.60     0          0          0          0
A23-00           733.80     0          0          0          0
A24-00           732.00     0          0          0          0
A25-00           730.80     0          0          0          0
A26-00           731.40     0          0          0          0
A27-00           733.00     0          0          0          0
A28-00           728.10     0          0          0          0
A29-00           730.80     0          0          0          0
A30-00           735.50     0          0          0          0
A31-00           736.60     0          0          0          0
A32-00           721.50     0          0          0          0
A33-00           715.70     0          0          0          0
A34-00           718.00     0          0          0          0
A35-00           723.50     0          0          0          0
A36-00           740.00     0          0          0          0
A37-00           716.60     0          0          0          0
A38-00           729.30     0          0          0          0
A39-00           720.00     0          0          0          0
A40-00           723.50     0          0          0          0
A41-00           738.70     0          0          0          0
A35-02           713.50     0          0          0          0
A68-00           710.00     0          0          0          0
A39-02           718.40     0          0          0          0
A72-00           713.50     0          0          0          0
A45-00           724.00     0          0          0          0
A44-02           734.20     0          0          0          0
A44-01           721.00     0          0          0          0
A44-00           733.50     0          0          0          0
O26-00           727.00     0          0          0          0
O26-CP4          723.50     0          0          0          0
O25-00           724.80     0          0          0          0
O24-00           838.90     0          0          0          0
O23-00           734.20     0          0          0          0
O22-00           731.40     0          0          0          0
O21-00           732.90     0          0          0          0
O20-00           822.00     0          0          0          0
O19-00           730.20     0          0          0          0
O18-00           722.80     0          0          0          0
O17-00           801.50     0          0          0          0
O16-00           712.80     0          0          0          0
O15-00           698.40     0          0          0          0
O23-02           736.20     0          0          0          0
O04-00           710.00     0          0          0          0
M41-VOR          721.50     0          0          0          0
A62-01           714.90     0          0          0          0
O07-00           713.80     0          0          0          0
O07-02           727.00     0          0          0          0
O06-00           725.00     0          0          0          0
O07-04           722.20     0          0          0          0
A42A-02          747.97     0          0          0          0
A42A-04          744.27     0          0          0          0
A42A-06          749.81     0          0          0          0
A42A-10          747.84     0          0          0          0
A42A-12          746.24     0          0          0          0
A42A-14          746.86     0          0          0          0
A42A-16          749.51     0          0          0          0
A42A-20          749.26     0          0          0          0
A42A-22          747.03     0          0          0          0
A42A-24          745.63     0          0          0          0
A42-04           742.52     0          0          0          0
A42-06           752.12     0          0          0          0
A42-08           747.40     0          0          0          0
A42-10           749.37     0          0          0          0
A42-12           748.58     0          0          0          0
A42-20           745.68     0          0          0          0
A42-22           745.50     0          0          0          0
A42-26           749.62     0          0          0          0
A42-28           748.96     0          0          0          0
A42-30           747.94     0          0          0          0
A42-32           749.81     0          0          0          0
A42-34           749.03     0          0          0          0
A42-36           749.40     0          0          0          0
A42-40           748.41     0          0          0          0
A42-42           747.94     0          0          0          0
A42-44           749.10     0          0          0          0
A42-46           750.46     0          0          0          0
A42-48           750.70     0          0          0          0
A42-50           751.30     0          0          0          0
A42-52           750.72     0          0          0          0
A42-54           750.93     0          0          0          0
A42-56           749.26     0          0          0          0
A42-58           749.42     0          0          0          0
A42-60           747.08     0          0          0          0
C55-00           0          0          0          0          0
C54-18           0          0          0          0          0
C54-16           0          0          0          0          0
C54-20           0          0          0          0          0
C54-22           0          0          0          0          0
C54-30           0          0          0          0          0
USC              0          0          0          0          0
USC-SIPH         0          0          0          0          0
C54-14           0          0          0          0          0
C54-12           0          0          0          0          0
C54-06           0          0          0          0          0
CKH-CP2          0          0          0          0          0
C54-02           0          0          0          0          0
C54-00           0          0          0          0          0
C53-10           0          0          0          0          0
MCL-CP2          0          0          0          0          0
CHR-470          0          0          0          0          0
C51-CP2          0          0          0          0          0
C45B-08          0          0          0          0          0
C52-CP2          0          0          0          0          0
C46-02           0          0          0          0          0
C46-CP2          0          0          0          0          0
C51-06           0          0          0          0          0
C45B-04          0          0          0          0          0
C51-04           0          0          0          0          0
C52-02           0          0          0          0          0
C51-02           0          0          0          0          0
C45B-02          0          0          0          0          0
C45B-00          0          0          0          0          0
C45A-00          0          0          0          0          0
C45-00           0          0          0          0          0
C53-02           0          0          0          0          0
C45-CP2          0          0          0          0          0
C50B02           0          0          0          0          0
CARN-CP2         0          0          0          0          0
C50A04           0          0          0          0          0
C14-OFP          0          0          0          0          0
C50A00           0          0          0          0          0
C44-06           0          0          0          0          0
C53-00           0          0          0          0          0
C50-02           0          0          0          0          0
C50B00           0          0          0          0          0
C47-OR           0          0          0          0          0
C47-00           0          0          0          0          0
C41-OFP          0          0          0          0          0
C50A-CP2         0          0          0          0          0
C41-00           0          0          0          0          0
C14-CP2          0          0          0          0          0
C38A00-2         0          0          0          0          0
C44-00           0          0          0          0          0
C38B00-2         0          0          0          0          0
C44-OR           0          0          0          0          0
C49-00           0          0          0          0          0
C43-00           0          0          0          0          0
C43-02           0          0          0          0          0
C13A-OFP         0          0          0          0          0
C42-02           0          0          0          0          0
C38A00           0          0          0          0          0
C48A02           0          0          0          0          0
C38B00           0          0          0          0          0
C48A02-2         0          0          0          0          0
C48A02-4         0          0          0          0          0
C38-OFP          0          0          0          0          0
C38-CP2          0          0          0          0          0
C38-00           0          0          0          0          0
C48A06           0          0          0          0          0
C41-02           0          0          0          0          0
C14-00           0          0          0          0          0
C13A10           0          0          0          0          0
C39-00           0          0          0          0          0
C49-CP2          0          0          0          0          0
C37-00           0          0          0          0          0
C37-CP2          0          0          0          0          0
C48A06-2         0          0          0          0          0
C36-OFP          0          0          0          0          0
C41-CP2          0          0          0          0          0
C13A02           0          0          0          0          0
C14-08           0          0          0          0          0
C13A00           0          0          0          0          0
90710            0          0          0          0          0
90711            0          0          0          0          0
C36-00           0          0          0          0          0
C13-26           0          0          0          0          0
C15-OFP          0          0          0          0          0
C36-CP2          0          0          0          0          0
C37-OFP          0          0          0          0          0
C15-CP2          0          0          0          0          0
C15-00           0          0          0          0          0
C16-00           0          0          0          0          0
O16-CP           0          0          0          0          0
C33-02           0          0          0          0          0
C39-OR           0          0          0          0          0
C24-CP2          0          0          0          0          0
C35-CP2          0          0          0          0          0
C33-00           0          0          0          0          0
C33-CP2          0          0          0          0          0
C17-00           0          0          0          0          0
C34-00           0          0          0          0          0
C34-CP2          0          0          0          0          0
C24-00           0          0          0          0          0
C18-00           0          0          0          0          0
C25-00           0          0          0          0          0
C23-06           0          0          0          0          0
KEN-CP2          0          0          0          0          0
C25-CP2          0          0          0          0          0
C25-OFP          0          0          0          0          0
C19-CP2          0          0          0          0          0
C31-06           0          0          0          0          0
C19-00           0          0          0          0          0
C31-00           0          0          0          0          0
C20-CP2          0          0          0          0          0
C13-18           0          0          0          0          0
C30-04           0          0          0          0          0
C30-02           0          0          0          0          0
C13-12           0          0          0          0          0
C26-00           0          0          0          0          0
C30-00           0          0          0          0          0
O01-CP           0          0          0          0          0
O01-02           0          0          0          0          0
C26-02           0          0          0          0          0
C29-02           0          0          0          0          0
O01-08           0          0          0          0          0
O01-10           0          0          0          0          0
C29-00           0          0          0          0          0
C28-00           0          0          0          0          0
C30-CP2          0          0          0          0          0
C27-00           0          0          0          0          0
C23-04           0          0          0          0          0
C21-08           0          0          0          0          0
C22-02           0          0          0          0          0
C21-OFP          0          0          0          0          0
C21-00           0          0          0          0          0
C26A04           0          0          0          0          0
O01-16           0          0          0          0          0
C26A00           0          0          0          0          0
C13-00           0          0          0          0          0
C13-04           0          0          0          0          0
C22-OFP          0          0          0          0          0
C22-00           0          0          0          0          0
O02-CP           0          0          0          0          0
C23-00           0          0          0          0          0
C12-02           0          0          0          0          0
O02-00           0          0          0          0          0
C30-OFP          0          0          0          0          0
C12-00           0          0          0          0          0
C29-CP2          0          0          0          0          0
O03-02           0          0          0          0          0
C23-OFP          0          0          0          0          0
C27-CP2          0          0          0          0          0
C29-OFP          0          0          0          0          0
O03-00           0          0          0          0          0
O03-OFP          0          0          0          0          0
C11-02           0          0          0          0          0
C11-00           0          0          0          0          0
C10-00           0          0          0          0          0
C27-OFP          0          0          0          0          0
C10-02           0          0          0          0          0
O03-06           0          0          0          0          0
C28-CP2          0          0          0          0          0
O05-OFP          0          0          0          0          0
O05-CP2          0          0          0          0          0
O05-00           0          0          0          0          0
O05-CP4          0          0          0          0          0
O05-02           0          0          0          0          0
O05A-CP          0          0          0          0          0
O05A00           0          0          0          0          0
C08-04           0          0          0          0          0
C07-00           0          0          0          0          0
C08-C09          0          0          0          0          0
O05B00           0          0          0          0          0
C06-OR           0          0          0          0          0
C06-00           0          0          0          0          0
C05A-OFP         0          0          0          0          0
C05A00           0          0          0          0          0
C05A02           0          0          0          0          0
C04-00           0          0          0          0          0
C03A00           0          0          0          0          0
C03-00           0          0          0          0          0
O08-00           0          0          0          0          0
O09-00           0          0          0          0          0
O09-OR           0          0          0          0          0
O09-02           0          0          0          0          0
O09-04           0          0          0          0          0
O08-CP2          0          0          0          0          0
O10A00           0          0          0          0          0
O09-06           0          0          0          0          0
O10-00           0          0          0          0          0
O10-OFP          0          0          0          0          0
COR-PS           0          0          0          0          0
O13-00           0          0          0          0          0
O26A-OFP         0          0          0          0          0
S-46-10          0          0          0          0          0
S-46-08          0          0          0          0          0
SMR-40           0          0          0          0          0
SMR40OFP         0          0          0          0          0
S-46-06          0          0          0          0          0
SMR40CP1         0          0          0          0          0
S-42             0          0          0          0          0
S-42-OFP         0          0          0          0          0
S-42A            0          0          0          0          0
S42A-OFP         0          0          0          0          0
S-42-CP1         0          0          0          0          0
S-42-00          0          0          0          0          0
SMR40-00         0          0          0          0          0
O-14N-24         0          0          0          0          0
O-14N-22         0          0          0          0          0
O-14N-26         0          0          0          0          0
S-46-04          0          0          0          0          0
S-42-02          0          0          0          0          0
S-46-02          0          0          0          0          0
S-46             0          0          0          0          0
3-A-04           0          0          0          0          0
3-A-02           0          0          0          0          0
O-14N-20         0          0          0          0          0
S-42-04          0          0          0          0          0
2-A              0          0          0          0          0
2-A-02           0          0          0          0          0
O-14N-18         0          0          0          0          0
S18-98           0          0          0          0          0
S18-96           0          0          0          0          0
O-14N-16         0          0          0          0          0
S18-94           0          0          0          0          0
S18-100          0          0          0          0          0
3-A              0          0          0          0          0
S18-102          0          0          0          0          0
S18-92           0          0          0          0          0
O-14N-14         0          0          0          0          0
S18-104          0          0          0          0          0
O-14-10          0          0          0          0          0
S18-106          0          0          0          0          0
S18-108          0          0          0          0          0
O-14-08          0          0          0          0          0
S18-110          0          0          0          0          0
S18-90           0          0          0          0          0
O-14-06          0          0          0          0          0
S18-112          0          0          0          0          0
S18-114          0          0          0          0          0
S18-88           0          0          0          0          0
S-41-CP1         0          0          0          0          0
S-41             0          0          0          0          0
S-41-00          0          0          0          0          0
S18-86           0          0          0          0          0
S18-84           0          0          0          0          0
O-14N-28         0          0          0          0          0
S18-82           0          0          0          0          0
O-14N-12         0          0          0          0          0
O-14N-10         0          0          0          0          0
O-14N-08         0          0          0          0          0
S18-80           0          0          0          0          0
O-14N-06         0          0          0          0          0
SMR-50           0          0          0          0          0
S18-78           0          0          0          0          0
S-41-02          0          0          0          0          0
S-41-04          0          0          0          0          0
S-40-00          0          0          0          0          0
S-40             0          0          0          0          0
O-14-04          0          0          0          0          0
S-40-OFP         0          0          0          0          0
O-14N-04         0          0          0          0          0
O-14N-02         0          0          0          0          0
O14-WEST         0          0          0          0          0
O14-EAST         0          0          0          0          0
S18-76           0          0          0          0          0
S-41-06          0          0          0          0          0
S-40-02          0          0          0          0          0
S18-74           0          0          0          0          0
S18-72           0          0          0          0          0
S-40-04          0          0          0          0          0
S18-70           0          0          0          0          0
S-41-08          0          0          0          0          0
S-40-06          0          0          0          0          0
S-41-10          0          0          0          0          0
S-41-12          0          0          0          0          0
S18-68           0          0          0          0          0
S-40-08          0          0          0          0          0