;; SWMM5 .inp converted from XPSWMM .xp file
;; Generated by XPSWMM Card Reader
;; Source format: XP_CARD | Original title: Kelowna Downtown Drainage Study - Existing System; 10 Year Storm

[TITLE]
;;Project Title/Notes
Kelowna Downtown Drainage Study - Existing System; 10 Year Storm

[OPTIONS]
FLOW_UNITS           CMS
INFILTRATION         HORTON
FLOW_ROUTING         DYNWAVE
LINK_OFFSETS         DEPTH
MIN_SLOPE            0.0
ALLOW_PONDING        NO
SKIP_STEADY_STATE    NO
ROUTING_STEP         00:00:15
VARIABLE_STEP        0.75
INERTIAL_DAMPING     PARTIAL
NORMAL_FLOW_LIMITED  BOTH

[JUNCTIONS]
;;Name           Elev       MaxDepth   InitDepth  SurDepth   Aponded
;;-------------- ---------- ---------- ---------- ---------- ----------
1100             344.94     0          0          0          0
1110             345.27     0          0          0          0
1120             345.04     0          0          0          0
1135             350.88     0          0          0          0
1145             350.84     0          0          0          0
1195             350.34     0          0          0          0
1205             350.38     0          0          0          0
1215             350.85     0          0          0          0
1255             345.14     0          0          0          0
1265             346.32     0          0          0          0
1275             345.78     0          0          0          0
1310             345.05     0          0          0          0
1320             345.62     0          0          0          0
1335             345.07     0          0          0          0
1345             345.17     0          0          0          0
1355             344.78     0          0          0          0
1360             343.14     0          0          0          0
1365             343.75     0          0          0          0
1370             344.86     0          0          0          0
1375             344.93     0          0          0          0
1380             345.01     0          0          0          0
1385             344.69     0          0          0          0
1390             344.22     0          0          0          0
1395             343.82     0          0          0          0
1400             343.88     0          0          0          0
1405             344.23     0          0          0          0
1410             344.40     0          0          0          0
1415             343.90     0          0          0          0
1420             343.62     0          0          0          0
1425             343.42     0          0          0          0
1430             343.56     0          0          0          0
1435             343.78     0          0          0          0
1440             344.68     0          0          0          0
1445             345.83     0          0          0          0
1450             344.35     0          0          0          0
1455             346.39     0          0          0          0
1460             346.04     0          0          0          0
1465             346.45     0          0          0          0
1470             348.51     0          0          0          0
1475             344.85     0          0          0          0
1480             343.71     0          0          0          0
1485             344.80     0          0          0          0
1490             344.70     0          0          0          0
1495             344.81     0          0          0          0
1500             343.70     0          0          0          0
1505             343.89     0          0          0          0
1510             345.15     0          0          0          0
1515             345.53     0          0          0          0
1520             345.33     0          0          0          0
1525             345.24     0          0          0          0
1530             346.37     0          0          0          0
1535             346.21     0          0          0          0
1540             345.20     0          0          0          0
1545             343.92     0          0          0          0
1550             344.28     0          0          0          0
1555             343.80     0          0          0          0
1560             344.01     0          0          0          0
1565             344.44     0          0          0          0
1570             345.67     0          0          0          0
1575             344.14     0          0          0          0
1580             343.44     0          0          0          0
1585             344.72     0          0          0          0
1590             345.13     0          0          0          0
1595             345.07     0          0          0          0
1600             350.96     0          0          0          0
1605             350.62     0          0          0          0
1610             350.33     0          0          0          0
1615             351.22     0          0          0          0
1620             351.41     0          0          0          0
1625             346.05     0          0          0          0
1630             345.88     0          0          0          0
1635             345.17     0          0          0          0
1640             345.02     0          0          0          0
1645             343.35     0          0          0          0
1650             344.76     0          0          0          0
1655             346.42     0          0          0          0
1660             343.66     0          0          0          0
1665             345.96     0          0          0          0
1670             345.99     0          0          0          0
1675             344.83     0          0          0          0
1680             344.62     0          0          0          0
1685             344.40     0          0          0          0
1690             346.15     0          0          0          0
1695             346.07     0          0          0          0
1700             346.24     0          0          0          0
1705             346.08     0          0          0          0
1710             345.64     0          0          0          0
1715             345.75     0          0          0          0
1720             345.78     0          0          0          0
1725             345.04     0          0          0          0
1730             347.28     0          0          0          0
1735             345.03     0          0          0          0
1740             344.99     0          0          0          0
1745             344.83     0          0          0          0
1750             344.47     0          0          0          0
1755             345.13     0          0          0          0
1760             345.07     0          0          0          0
1765             345.16     0          0          0          0
1770             346.36     0          0          0          0
1775             344.89     0          0          0          0
1780             345.12     0          0          0          0
1785             350.90     0          0          0          0
1790             350.34     0          0          0          0
1795             350.95     0          0          0          0
1800             351.34     0          0          0          0
1805             349.98     0          0          0          0
1810             350.25     0          0          0          0
1815             350.38     0          0          0          0
1820             350.85     0          0          0          0
1825             352.01     0          0          0          0
1830             352.35     0          0          0          0
1835             351.73     0          0          0          0
1840             351.05     0          0          0          0
1845             350.78     0          0          0          0
1850             350.47     0          0          0          0
1855             350.06     0          0          0          0
1860             350.93     0          0          0          0
1865             350.55     0          0          0          0
1870             350.89     0          0          0          0
1875             350.37     0          0          0          0
1880             353.70     0          0          0          0
1885             352.86     0          0          0          0
1890             352.07     0          0          0          0
1895             350.50     0          0          0          0
1900             350.81     0          0          0          0
1905             350.97     0          0          0          0
1910             350.51     0          0          0          0
1915             344.80     0          0          0          0
1920             345.59     0          0          0          0
1925             349.95     0          0          0          0
1930             348.81     0          0          0          0
1935             346.66     0          0          0          0
1940             348.20     0          0          0          0
1945             348.11     0          0          0          0
1950             347.96     0          0          0          0
1955             347.24     0          0          0          0
1960             347.08     0          0          0          0
1965             347.58     0          0          0          0
1970             347.50     0          0          0          0
1975             349.66     0          0          0          0
1980             346.93     0          0          0          0
1985             348.73     0          0          0          0
1990             345.72     0          0          0          0
1995             344.88     0          0          0          0
2000             347.94     0          0          0          0
2005             347.75     0          0          0          0
2010             346.21     0          0          0          0
2015             345.30     0          0          0          0
2020             345.14     0          0          0          0
2025             346.83     0          0          0          0
2030             345.74     0          0          0          0
2035             346.32     0          0          0          0
2040             344.64     0          0          0          0
2045             344.27     0          0          0          0
2050             344.90     0          0          0          0
2055             343.59     0          0          0          0
2060             344.82     0          0          0          0
2065             345.09     0          0          0          0
2070             344.81     0          0          0          0
2075             344.78     0          0          0          0
2080             345.06     0          0          0          0
2085             344.44     0          0          0          0
2090             344.82     0          0          0          0
2095             344.84     0          0          0          0
2100             345.40     0          0          0          0
2105             346.08     0          0          0          0
2110             346.04     0          0          0          0
2115             346.12     0          0          0          0
2120             346.07     0          0          0          0
2125             346.18     0          0          0          0
2130             345.20     0          0          0          0
2135             345.13     0          0          0          0
2140             345.45     0          0          0          0
2145             345.20     0          0          0          0
2150             345.30     0          0          0          0
2155             345.43     0          0          0          0
2160             344.53     0          0          0          0
2165             343.48     0          0          0          0
2170             344.60     0          0          0          0
2175             343.88     0          0          0          0
2180             345.29     0          0          0          0
2185             345.30     0          0          0          0
2190             344.43     0          0          0          0
2195             344.55     0          0          0          0
2200             344.76     0          0          0          0
2205             344.51     0          0          0          0
2210             344.43     0          0          0          0
2215             346.08     0          0          0          0
2220             344.56     0          0          0          0
2225             343.18     0          0          0          0
2230             344.29     0          0          0          0
2235             344.12     0          0          0          0
2240             343.55     0          0          0          0
2245             344.29     0          0          0          0
2250             344.97     0          0          0          0
2255             344.34     0          0          0          0
2260             344.91     0          0          0          0
2265             344.90     0          0          0          0
2270             345.07     0          0          0          0
2275             344.39     0          0          0          0
2280             344.08     0          0          0          0
2285             344.00     0          0          0          0
2290             345.71     0          0          0          0
2295             344.34     0          0          0          0
2300             344.05     0          0          0          0
2305             343.88     0          0          0          0
2310             343.94     0          0          0          0
2315             343.90     0          0          0          0
2320             344.32     0          0          0          0
2325             344.15     0          0          0          0
2330             344.41     0          0          0          0
2335             343.71     0          0          0          0
2340             344.85     0          0          0          0
2345             344.42     0          0          0          0
2350             344.50     0          0          0          0
2355             344.56     0          0          0          0
2360             344.68     0          0          0          0
2365             344.71     0          0          0          0
2370             344.91     0          0          0          0
2375             344.37     0          0          0          0
2380             344.77     0          0          0          0
2385             344.81     0          0          0          0
2390             346.37     0          0          0          0
2395             346.57     0          0          0          0
2400             345.05     0          0          0          0
2405             344.30     0          0          0          0
2410             344.16     0          0          0          0
2415             344.92     0          0          0          0
2420             345.78     0          0          0          0
2425             346.02     0          0          0          0
2430             346.53     0          0          0          0
2435             346.03     0          0          0          0
2440             346.51     0          0          0          0
2445             345.11     0          0          0          0
2450             345.74     0          0          0          0
2455             344.92     0          0          0          0
2460             345.35     0          0          0          0
2465             345.27     0          0          0          0
2470             345.24     0          0          0          0
2475             344.74     0          0          0          0
2480             345.91     0          0          0          0
2485             346.50     0          0          0          0
2490             346.44     0          0          0          0
2495             346.47     0          0          0          0
2500             346.53     0          0          0          0
2505             344.56     0          0          0          0
2510             344.66     0          0          0          0
2515             344.31     0          0          0          0
2520             344.67     0          0          0          0
2525             344.05     0          0          0          0
2530             344.83     0          0          0          0
2535             344.63     0          0          0          0
2540             344.71     0          0          0          0
2545             344.76     0          0          0          0
2550             346.09     0          0          0          0
2555             345.21     0          0          0          0
2560             345.87     0          0          0          0
2565             344.88     0          0          0          0
2570             344.57     0          0          0          0
2575             346.19     0          0          0          0
2580             344.83     0          0          0          0
2585             345.52     0          0          0          0
2590             345.32     0          0          0          0
2595             344.63     0          0          0          0
2600             344.85     0          0          0          0
2605             344.95     0          0          0          0
2610             345.18     0          0          0          0
2615             345.38     0          0          0          0
2620             345.67     0          0          0          0
2625             345.26     0          0          0          0
2630             344.36     0          0          0          0
2635             344.50     0          0          0          0
2640             346.13     0          0          0          0
2645             346.28     0          0          0          0
2650             346.65     0          0          0          0
2655             344.95     0          0          0          0
2660             345.22     0          0          0          0
2665             344.82     0          0          0          0
2670             344.84     0          0          0          0
2675             344.81     0          0          0          0
2680             344.43     0          0          0          0
2685             344.92     0          0          0          0
2695             347.01     0          0          0          0
2700             343.96     0          0          0          0
2705             344.76     0          0          0          0
2710             344.91     0          0          0          0
2715             344.73     0          0          0          0
2720             344.92     0          0          0          0
2725             344.53     0          0          0          0
2730             346.02     0          0          0          0
2735             346.84     0          0          0          0
2740             345.42     0          0          0          0
2745             345.44     0          0          0          0
2750             346.84     0          0          0          0
2755             345.65     0          0          0          0
2760             345.57     0          0          0          0
2765             347.17     0          0          0          0
2770             345.12     0          0          0          0
2775             345.34     0          0          0          0
2780             345.45     0          0          0          0
2785             345.09     0          0          0          0
2790             345.17     0          0          0          0
2795             344.74     0          0          0          0
2800             346.89     0          0          0          0
2805             345.17     0          0          0          0
2810             345.42     0          0          0          0
2815             345.57     0          0          0          0
2820             345.19     0          0          0          0
2825             347.22     0          0          0          0
2830             345.49     0          0          0          0
2835             344.91     0          0          0          0
2840             344.70     0          0          0          0
2845             344.23     0          0          0          0
2850             343.96     0          0          0          0
2855             343.94     0          0          0          0
2860             344.35     0          0          0          0
2865             344.22     0          0          0          0
2870             344.24     0          0          0          0
2875             344.18     0          0          0          0
2880             344.17     0          0          0          0
2885             344.06     0          0          0          0
2890             344.28     0          0          0          0
2895             344.29     0          0          0          0
2900             344.31     0          0          0          0
2905             344.12     0          0          0          0
2910             343.81     0          0          0          0
2915             345.06     0          0          0          0
2920             345.22     0          0          0          0
2925             346.66     0          0          0          0
2930             346.27     0          0          0          0
2935             344.77     0          0          0          0
2940             344.64     0          0          0          0
2945             344.72     0          0          0          0
2950             343.31     0          0          0          0
2955             343.74     0          0          0          0
2960             345.50     0          0          0          0
2965             343.89     0          0          0          0
2970             344.03     0          0          0          0
2975             343.99     0          0          0          0
2980             343.75     0          0          0          0
2985             345.57     0          0          0          0
2990             343.97     0          0          0          0
2995             344.14     0          0          0          0
3000             344.29     0          0          0          0
3005             343.94     0          0          0          0
3010             344.67     0          0          0          0
3015             344.87     0          0          0          0
3040             344.56     0          0          0          0
3050             344.64     0          0          0          0
3065             343.69     0          0          0          0
3070             343.66     0          0          0          0
3075             344.30     0          0          0          0
3080             350.62     0          0          0          0
3085             348.95     0          0          0          0
3090             348.90     0          0          0          0
3095             349.51     0          0          0          0
3100             348.69     0          0          0          0
3105             348.77     0          0          0          0
3120             343.81     0          0          0          0
3110             345.69     0          0          0          0
3115             346.03     0          0          0          0
3060             347.44     0          0          0          0
3055             347.93     0          0          0          0
3020             351.60     0          0          0          0
3025             348.88     0          0          0          0
3030             348.69     0          0          0          0
3035             348.74     0          0          0          0
3045             346.46     0          0          0          0
1105             347.12     0          0          0          0
1260             347.08     0          0          0          0
1125             347.03     0          0          0          0
1325             347.06     0          0          0          0
1330             347.04     0          0          0          0
1340             347.67     0          0          0          0
1350             347.83     0          0          0          0
1280             348.28     0          0          0          0
1285             348.01     0          0          0          0
1290             348.11     0          0          0          0
1295             348.20     0          0          0          0
1300             348.18     0          0          0          0
1305             348.64     0          0          0          0
1270             348.55     0          0          0          0
1315             348.58     0          0          0          0
1140             348.58     0          0          0          0
1150             349.02     0          0          0          0
1155             349.01     0          0          0          0
1165             348.86     0          0          0          0
1170             348.70     0          0          0          0
1180             348.76     0          0          0          0
1185             348.70     0          0          0          0
1190             348.97     0          0          0          0
1200             349.09     0          0          0          0
1210             349.11     0          0          0          0
1220             348.97     0          0          0          0
1230             349.13     0          0          0          0
1240             349.98     0          0          0          0
1250             349.77     0          0          0          0
1130             349.43     0          0          0          0
3125             345.00     0          0          0          0
3130             345.48     0          0          0          0
3135             346.29     0          0          0          0
3140             349.13     0          0          0          0
3145             348.68     0          0          0          0
3150             346.40     0          0          0          0
3155             346.56     0          0          0          0
3160             346.80     0          0          0          0
3165             346.85     0          0          0          0
3170             346.65     0          0          0          0
3175             345.38     0          0          0          0
3180             347.00     0          0          0          0
3185             347.30     0          0          0          0
3195             346.91     0          0          0          0
3200             346.26     0          0          0          0
3205             345.81     0          0          0          0
3210             344.51     0          0          0          0
3215             344.16     0          0          0          0
3220             344.55     0          0          0          0
3225             344.72     0          0          0          0
3230             345.12     0          0          0          0
3235             345.08     0          0          0          0
3240             352.50     0          0          0          0
3245             352.52     0          0          0          0
3250             352.05     0          0          0          0
3255             352.16     0          0          0          0
3260             352.11     0          0          0          0
3265             351.36     0          0          0          0
3270             352.16     0          0          0          0
3275             348.60     0          0          0          0
3280             347.49     0          0          0          0
3285             348.75     0          0          0          0
3290             348.04     0          0          0          0
3295             347.15     0          0          0          0
3300             346.85     0          0          0          0
3305             350.11     0          0          0          0
3310             350.19     0          0          0          0
3315             348.77     0          0          0          0
3335             347.30     0          0          0          0
3340             350.50     0          0          0          0
3345             350.04     0          0          0          0
3350             344.46     0          0          0          0
3355             349.00     0          0          0          0
3360             348.57     0          0          0          0
3380             343.91     0          0          0          0
3385             344.80     0          0          0          0
3390             344.58     0          0          0          0
3395             347.03     0          0          0          0
3365             349.51     0          0          0          0
3370             349.60     0          0          0          0
3325             348.33     0          0          0          0
1015             342.90     0          0          0          0
1025             344.88     0          0          0          0
1055             344.19     0          0          0          0
1050             344.68     0          0          0          0
1045             344.78     0          0          0          0
1040             344.79     0          0          0          0
1035             344.87     0          0          0          0
1095             344.44     0          0          0          0
1090             345.75     0          0          0          0
1085             343.57     0          0          0          0
1080             342.90     0          0          0          0
1075             343.00     0          0          0          0
1020             342.93     0          0          0          0
1065             344.69     0          0          0          0
1070             344.71     0          0          0          0