;; SWMM5 .inp converted from XPSWMM .xp file
;; Generated by XPSWMM Card Reader
;; Source format: XP_CARD | Original title: HSD CSO STUDY, GRAND CALUMET RIVER BASIN UPDATED MODEL USING SWMM 4.30

[TITLE]
;;Project Title/Notes
HSD CSO STUDY, GRAND CALUMET RIVER BASIN UPDATED MODEL USING SWMM 4.30

[OPTIONS]
FLOW_UNITS           CFS
INFILTRATION         HORTON
FLOW_ROUTING         DYNWAVE
LINK_OFFSETS         DEPTH
MIN_SLOPE            0.0
ALLOW_PONDING        NO
SKIP_STEADY_STATE    NO
ROUTING_STEP         00:00:05
VARIABLE_STEP        0.75
INERTIAL_DAMPING     NONE
NORMAL_FLOW_LIMITED  BOTH
MAX_TRIALS           60
HEAD_TOLERANCE       0.0033

[JUNCTIONS]
;;Name           Elev       MaxDepth   InitDepth  SurDepth   Aponded
;;-------------- ---------- ---------- ---------- ---------- ----------
11204            587.67     0          0          0          0
11216            584.76     0          0          0          0
11227            587.61     0          0          0          0
11228            587.46     0          0          0          0
11233            585.86     0          0          0          0
11234            585.48     0          0          0          0
12271            601.00     0          0          0          0
12272            600.00     0          0          0          0
12273            599.00     0          0          0          0
12274            597.00     0          0          0          0
12275            596.00     0          0          0          0
12276            595.00     0          0          0          0
12277            594.00     0          0          0          0
12278            591.00     0          0          0          0
12279            590.00     0          0          0          0
12286            594.39     0          0          0          0
12217            590.12     0          0          0          0
12216            591.86     0          0          0          0
12407            592.71     0          0          0          0
12403            591.00     0          0          0          0
12406            591.00     0          0          0          0
12291            591.00     0          0          0          0
12292            591.00     0          0          0          0
12293            591.00     0          0          0          0
12294            591.00     0          0          0          0
13211            589.00     0          0          0          0
14207            586.43     0          0          0          0
14297            586.21     0          0          0          0
14215            625.00     0          0          0          0
2204             589.66     0          0          0          0
2209             597.00     0          0          0          0
2214             596.78     0          0          0          0
2219             594.57     0          0          0          0
2225             593.00     0          0          0          0
2411             590.44     0          0          0          0
2410             584.93     0          0          0          0
2458             596.82     0          0          0          0
15202            583.50     0          0          0          0
15203            585.19     0          0          0          0
15204            583.75     0          0          0          0
15206            584.02     0          0          0          0
10401            599.35     0          0          0          0
10415            596.65     0          0          0          0
10277            596.65     0          0          0          0
10483            597.49     0          0          0          0
3223             596.69     0          0          0          0
1225             597.95     0          0          0          0
1221             597.54     0          0          0          0
1222             603.76     0          0          0          0
4221             597.61     0          0          0          0
4222             597.61     0          0          0          0
3233             600.36     0          0          0          0
3234             600.41     0          0          0          0
1207             606.00     0          0          0          0
5201             596.02     0          0          0          0
5202             594.43     0          0          0          0
5203             600.28     0          0          0          0
5250             620.00     0          0          0          0
5253             607.00     0          0          0          0
5254             606.00     0          0          0          0
5255             605.00     0          0          0          0
5257             601.69     0          0          0          0
5258             597.65     0          0          0          0
5259             596.56     0          0          0          0
7261             604.00     0          0          0          0
7263             606.00     0          0          0          0
7264             607.00     0          0          0          0
7265             608.00     0          0          0          0
7266             609.00     0          0          0          0
7207             603.50     0          0          0          0
7208             603.44     0          0          0          0
7212             603.95     0          0          0          0
7274             604.00     0          0          0          0
7215             602.00     0          0          0          0
7276             601.00     0          0          0          0
7277             602.00     0          0          0          0
7218             601.80     0          0          0          0
7279             602.00     0          0          0          0
7220             601.80     0          0          0          0
7281             602.00     0          0          0          0
7421             601.63     0          0          0          0
7222             601.00     0          0          0          0
7283             600.00     0          0          0          0
7224             599.67     0          0          0          0
7285             600.00     0          0          0          0
10286            615.47     0          0          0          0
10287            617.00     0          0          0          0
10288            616.93     0          0          0          0
10239            615.00     0          0          0          0
10289            616.89     0          0          0          0
10290            617.54     0          0          0          0
10291            616.90     0          0          0          0
10292            616.56     0          0          0          0
11001            0          0          0          0          0
11002            0          0          0          0          0
11003            0          0          0          0          0
11004            0          0          0          0          0
11005            0          0          0          0          0
11006            0          0          0          0          0
11007            0          0          0          0          0
11008            0          0          0          0          0
11009            0          0          0          0          0
11010            0          0          0          0          0
11011            0          0          0          0          0
11012            0          0          0          0          0
11013            0          0          0          0          0
11014            0          0          0          0          0
11015            0          0          0          0          0
11016            0          0          0          0          0
11017            0          0          0          0          0
11018            0          0          0          0          0
11019            0          0          0          0          0
11020            0          0          0          0          0
11021            0          0          0          0          0
11022            0          0          0          0          0
11023            0          0          0          0          0
11024            0          0          0          0          0
11025            0          0          0          0          0
11026            0          0          0          0          0
11027            0          0          0          0          0
11028            0          0          0          0          0
11029            0          0          0          0          0
11030            0          0          0          0          0
11031            0          0          0          0          0
11032            0          0          0          0          0
11033            0          0          0          0          0
11034            0          0          0          0          0
11035            0          0          0          0          0
12001            0          0          0          0          0
12002            0          0          0          0          0
12003            0          0          0          0          0
12004            0          0          0          0          0
12005            0          0          0          0          0
12006            0          0          0          0          0
12007            0          0          0          0          0
12008            0          0          0          0          0
12009            0          0          0          0          0
12010            0          0          0          0          0
12011            0          0          0          0          0
12012            0          0          0          0          0
12013            0          0          0          0          0
12014            0          0          0          0          0
12015            0          0          0          0          0
12016            0          0          0          0          0
12017            0          0          0          0          0
12018            0          0          0          0          0
12019            0          0          0          0          0
12020            0          0          0          0          0
12021            0          0          0          0          0
12022            0          0          0          0          0
12023            0          0          0          0          0
12024            0          0          0          0          0
12025            0          0          0          0          0
12026            0          0          0          0          0
12027            0          0          0          0          0
13001            0          0          0          0          0
13002            0          0          0          0          0
13003            0          0          0          0          0
13004            0          0          0          0          0
13005            0          0          0          0          0
13006            0          0          0          0          0
13007            0          0          0          0          0
13008            0          0          0          0          0
13009            0          0          0          0          0
13010            0          0          0          0          0
13011            0          0          0          0          0
13012            0          0          0          0          0
13013            0          0          0          0          0
13014            0          0          0          0          0
13015            0          0          0          0          0
13016            0          0          0          0          0
14001            0          0          0          0          0
14002            0          0          0          0          0
14003            0          0          0          0          0
14004            0          0          0          0          0
14005            0          0          0          0          0
14006            0          0          0          0          0
14007            0          0          0          0          0
14008            0          0          0          0          0
14009            0          0          0          0          0
14010            0          0          0          0          0
14011            0          0          0          0          0
14012            0          0          0          0          0
DUMMY91          0          0          0          0          0
DUMMY92          0          0          0          0          0
2001             0          0          0          0          0
2002             0          0          0          0          0
2003             0          0          0          0          0
2004             0          0          0          0          0
2005             0          0          0          0          0
2006             0          0          0          0          0
2007             0          0          0          0          0
2008             0          0          0          0          0
2009             0          0          0          0          0
2011             0          0          0          0          0
2012             0          0          0          0          0
2013             0          0          0          0          0
2014             0          0          0          0          0
2017             0          0          0          0          0
2018             0          0          0          0          0
2021             0          0          0          0          0
2022             0          0          0          0          0
2024             0          0          0          0          0
2025             0          0          0          0          0
2026             0          0          0          0          0
2027             0          0          0          0          0
2028             0          0          0          0          0
2029             0          0          0          0          0
2057             0          0          0          0          0
2058             0          0          0          0          0
2059             0          0          0          0          0
2061             0          0          0          0          0
2062             0          0          0          0          0
2063             0          0          0          0          0
2064             0          0          0          0          0
2065             0          0          0          0          0
2066             0          0          0          0          0
2032             0          0          0          0          0
2033             0          0          0          0          0
15001            0          0          0          0          0
15002            0          0          0          0          0
15003            0          0          0          0          0
15004            0          0          0          0          0
15005            0          0          0          0          0
15006            0          0          0          0          0
15088            0          0          0          0          0
10001            0          0          0          0          0
10002            0          0          0          0          0
10003            0          0          0          0          0
10005            0          0          0          0          0
10007            0          0          0          0          0
10009            0          0          0          0          0
10011            0          0          0          0          0
10013            0          0          0          0          0
10015            0          0          0          0          0
10016            0          0          0          0          0
10017            0          0          0          0          0
10019            0          0          0          0          0
10021            0          0          0          0          0
10023            0          0          0          0          0
10025            0          0          0          0          0
10027            0          0          0          0          0
10029            0          0          0          0          0
10031            0          0          0          0          0
10061            0          0          0          0          0
3023             0          0          0          0          0
1025             0          0          0          0          0
1021             0          0          0          0          0
1022             0          0          0          0          0
4021             0          0          0          0          0
4022             0          0          0          0          0
4023             0          0          0          0          0
3033             0          0          0          0          0
3034             0          0          0          0          0
9000             0          0          0          0          0
9001             0          0          0          0          0
9002             0          0          0          0          0
9003             0          0          0          0          0
9004             0          0          0          0          0
9005             0          0          0          0          0
9006             0          0          0          0          0
9007             0          0          0          0          0
9008             0          0          0          0          0
9009             0          0          0          0          0
9010             0          0          0          0          0
9011             0          0          0          0          0
9012             0          0          0          0          0
1001             0          0          0          0          0
1002             0          0          0          0          0
1003             0          0          0          0          0
1006             0          0          0          0          0
1007             0          0          0          0          0
1008             0          0          0          0          0
1009             0          0          0          0          0
1010             0          0          0          0          0
1011             0          0          0          0          0
1012             0          0          0          0          0
1013             0          0          0          0          0
1014             0          0          0          0          0
1015             0          0          0          0          0
1017             0          0          0          0          0
1000             0          0          0          0          0
1018             0          0          0          0          0
4001             0          0          0          0          0
4002             0          0          0          0          0
4003             0          0          0          0          0
3001             0          0          0          0          0
3002             0          0          0          0          0
3003             0          0          0          0          0
3005             0          0          0          0          0
3006             0          0          0          0          0
3008             0          0          0          0          0
3009             0          0          0          0          0
3010             0          0          0          0          0
3011             0          0          0          0          0
5001             0          0          0          0          0
5002             0          0          0          0          0
5003             0          0          0          0          0
5051             0          0          0          0          0
5052             0          0          0          0          0
5054             0          0          0          0          0
5055             0          0          0          0          0
5057             0          0          0          0          0
5058             0          0          0          0          0
5059             0          0          0          0          0
6051             0          0          0          0          0
6052             0          0          0          0          0
6053             0          0          0          0          0
6056             0          0          0          0          0
7001             0          0          0          0          0
7003             0          0          0          0          0
7004             0          0          0          0          0
7005             0          0          0          0          0
7006             0          0          0          0          0
7007             0          0          0          0          0
7008             0          0          0          0          0
7012             0          0          0          0          0
7014             0          0          0          0          0
7015             0          0          0          0          0
7016             0          0          0          0          0
7017             0          0          0          0          0
7018             0          0          0          0          0
7019             0          0          0          0          0
7020             0          0          0          0          0
7021             0          0          0          0          0
7041             0          0          0          0          0
7022             0          0          0          0          0
7023             0          0          0          0          0
7024             0          0          0          0          0
7025             0          0          0          0          0
7027             0          0          0          0          0
7028             0          0          0          0          0
7030             0          0          0          0          0
7031             0          0          0          0          0
7033             0          0          0          0          0
7034             0          0          0          0          0
8051             0          0          0          0          0
8052             0          0          0          0          0
8053             0          0          0          0          0
8054             0          0          0          0          0
8055             0          0          0          0          0
10033            0          0          0          0          0
10035            0          0          0          0          0
10037            0          0          0          0          0
10039            0          0          0          0          0
10041            0          0          0          0          0
10043            0          0          0          0          0
10045            0          0          0          0          0
10047            0          0          0          0          0
11299            584.59     0          0          0          0
11298            587.45     0          0          0          0
11212            584.26     0          0          0          0
11214            585.64     0          0          0          0
11217            587.00     0          0          0          0
11219            586.04     0          0          0          0
11220            585.33     0          0          0          0
11221            586.19     0          0          0          0
11222            588.03     0          0          0          0
11223            587.91     0          0          0          0
11297            587.24     0          0          0          0
11230            586.00     0          0          0          0
11236            587.50     0          0          0          0
11225            587.49     0          0          0          0
11226            587.73     0          0          0          0
14280            588.00     0          0          0          0
14281            588.00     0          0          0          0
14282            588.00     0          0          0          0
14283            588.00     0          0          0          0
11606            583.97     0          0          0          0
11607            584.70     0          0          0          0
11496            584.45     0          0          0          0
11608            583.24     0          0          0          0
11610            583.54     0          0          0          0
11612            584.19     0          0          0          0
11619            586.04     0          0          0          0
11614            585.64     0          0          0          0
11621            586.19     0          0          0          0
11617            587.00     0          0          0          0
11495            586.27     0          0          0          0
11620            585.33     0          0          0          0
11622            588.03     0          0          0          0
11623            587.91     0          0          0          0
11494            587.41     0          0          0          0
11626            587.73     0          0          0          0
11625            587.49     0          0          0          0
11630            586.00     0          0          0          0
11631            587.00     0          0          0          0
11697            587.00     0          0          0          0
11636            587.50     0          0          0          0
11698            587.45     0          0          0          0
11699            584.64     0          0          0          0
11800            586.48     0          0          0          0
11810            588.50     0          0          0          0
12281            600.60     0          0          0          0
12202            599.39     0          0          0          0
12282            599.39     0          0          0          0
12203            598.22     0          0          0          0
12283            598.22     0          0          0          0
12204            596.96     0          0          0          0
12284            596.96     0          0          0          0
12205            595.96     0          0          0          0
12285            595.96     0          0          0          0
12206            594.39     0          0          0          0
12208            590.30     0          0          0          0
12220            591.00     0          0          0          0
12215            596.00     0          0          0          0
12219            591.86     0          0          0          0
12225            590.02     0          0          0          0
12226            590.27     0          0          0          0
12227            590.18     0          0          0          0
12224            590.34     0          0          0          0
12299            591.86     0          0          0          0
13284            590.00     0          0          0          0
13282            592.00     0          0          0          0
13281            592.00     0          0          0          0
13283            590.00     0          0          0          0
12800            587.00     0          0          0          0
12601            600.53     0          0          0          0
12602            599.60     0          0          0          0
12603            598.18     0          0          0          0
12604            595.99     0          0          0          0
12605            595.82     0          0          0          0
12606            594.20     0          0          0          0
12611            593.06     0          0          0          0
12608            590.41     0          0          0          0
12404            590.52     0          0          0          0
12609            589.76     0          0          0          0
12405            590.99     0          0          0          0
12616            591.84     0          0          0          0
12402            592.83     0          0          0          0
12624            591.00     0          0          0          0
12625            590.22     0          0          0          0
12626            590.00     0          0          0          0
12627            589.86     0          0          0          0
12401            591.04     0          0          0          0
13293            589.49     0          0          0          0
13295            587.76     0          0          0          0
13288            591.61     0          0          0          0
13208            592.00     0          0          0          0
13299            588.00     0          0          0          0
13298            589.00     0          0          0          0
13285            595.90     0          0          0          0
13291            591.30     0          0          0          0
13286            591.00     0          0          0          0
13292            588.91     0          0          0          0
13297            588.73     0          0          0          0
13275            608.60     0          0          0          0
13274            595.34     0          0          0          0
13273            590.24     0          0          0          0
14296            587.00     0          0          0          0
14295            586.85     0          0          0          0
14293            587.00     0          0          0          0
14294            585.05     0          0          0          0
15210            582.97     0          0          0          0
15207            583.23     0          0          0          0
15297            640.00     0          0          0          0
15990            584.50     0          0          0          0
2205             590.15     0          0          0          0
2206             589.41     0          0          0          0
2227             589.16     0          0          0          0
2211             596.00     0          0          0          0
2215             594.49     0          0          0          0
2216             595.04     0          0          0          0