;; SWMM5 .inp converted from XPSWMM .xp file
;; Generated by XPSWMM Card Reader
;; Source format: XP_CARD | Original title: LOUISVILLE, KY C.S.O. PROJECT

[TITLE]
;;Project Title/Notes
LOUISVILLE, KY C.S.O. PROJECT

[OPTIONS]
FLOW_UNITS           CFS
INFILTRATION         HORTON
FLOW_ROUTING         DYNWAVE
LINK_OFFSETS         DEPTH
MIN_SLOPE            0.0
ALLOW_PONDING        NO
SKIP_STEADY_STATE    NO
ROUTING_STEP         00:00:03
VARIABLE_STEP        0.75
INERTIAL_DAMPING     NONE
NORMAL_FLOW_LIMITED  BOTH
MAX_TRIALS           30

[JUNCTIONS]
;;Name           Elev       MaxDepth   InitDepth  SurDepth   Aponded
;;-------------- ---------- ---------- ---------- ---------- ----------
73267-TPa        430.00     0          0          0          0
73267-TPb        430.00     0          0          0          0
23078a           430.00     0          0.33       0          0
23078b           438.75     0          0.30       0          0
53041a           433.00     0          0.30       0          0
08114a           441.40     0          0.30       0          0
08114b           442.50     0          0.30       0          0
08114c           440.00     0          1.98       0          0
08114d           440.00     0          2.58       0          0
53042B-T         440.00     0          0.45       0          0
08114            436.90     0          0.81       0          0
08115            453.70     0          0.52       0          0
08116            447.60     0          0.57       0          0
08103            440.40     0          0.58       0          0
08100            447.40     0          0.46       0          0
08592-T          444.00     0          0.40       0          0
08561            456.80     0          0          0          0
08760-T          455.10     0          0.02       0          0
78106-T          460.00     0          0.09       0          0
30427            465.00     0          0.02       0          0
46817A-AG        0          0          0          0          0
08771            460.39     0          0          0          0
75132-Ta         435.00     0          0          0          0
75365-DO         415.00     0          0          0          0
73259-DO         427.00     0          0          0          0
73270a           438.00     0          0          0          0
73270b           438.00     0          0          0          0
53043a           439.50     0          0          0          0
23074            443.00     0          0.98       0          0
73303-X          443.00     0          1.19       0          0
76198B-T         445.00     0          0.86       0          0
76222            455.00     0          0.27       0          0
53098            456.00     0          0.23       0          0
53097            460.00     0          0.14       0          0
08687            459.50     0          0.14       0          0
70104            457.50     0          0.18       0          0
08699            452.00     0          0.16       0          0
08004-T          448.00     0          0.35       0          0
07136-T          455.00     0          0.34       0          0
67892            454.00     0          0.50       0          0
67892-T          455.00     0          0.49       0          0
80040B           457.00     0          0.45       0          0
23038-T          460.00     0          0.55       0          0
52809-T          455.00     0          0.61       0          0
52813            460.00     0          0.52       0          0
08293            461.00     0          0.51       0          0
08294            457.00     0          0.53       0          0
66466A-T         456.00     0          0.52       0          0
12618            460.00     0          0.52       0          0
12618-T          458.00     0          0.53       0          0
52863            461.00     0          0.46       0          0
52862-T          460.00     0          0.44       0          0
52861            460.38     0          0.38       0          0
52860            458.74     0          0.35       0          0
08300            456.20     0          0.32       0          0
08299            455.00     0          0.33       0          0
53000            453.60     0          0.32       0          0
08161            452.50     0          0.35       0          0
23101            457.25     0          0.24       0          0
23100            455.10     0          0.28       0          0
08160            453.50     0          0.25       0          0
08159            450.90     0          0.30       0          0
23103            452.93     0          0.25       0          0
08158            454.45     0          0.25       0          0
08157            452.53     0          0.25       0          0
08156            453.04     0          0          0          0
51913            454.92     0          0          0          0
08154            457.67     0          0          0          0
51906            455.49     0          0          0          0
23086-BH         454.98     0          0          0          0
23086-BHa        454.32     0          0          0          0
53062            445.10     0          0.05       0          0
53064            437.91     0          0.16       0          0
53064-T          435.28     0          0.19       0          0
08026A-T         438.50     0          0          0          0
76238            445.40     0          0.04       0          0
08649            449.13     0          0.23       0          0
53085            448.35     0          0.17       0          0
53085A-T         449.25     0          0.24       0          0
04018            449.71     0          0          0          0
04016-X          446.36     0          0          0          0
53081-S          444.19     0          0.05       0          0
53081A-S         442.30     0          0.17       0          0
53081B-S         442.32     0          0.04       0          0
08117            443.37     0          0.20       0          0
08020            439.78     0          0          0          0
08023A-T         439.40     0          0          0          0
73298-AG         445.50     0          0.07       0          0
08120            448.10     0          0.25       0          0
53086            447.50     0          0.22       0          0
53089            451.98     0          0          0          0
08123            452.22     0          0          0          0
63876            446.22     0          0.04       0          0
08516-T          453.25     0          0.15       0          0
08520            455.30     0          0          0          0
53092            453.30     0          0.19       0          0
08136            455.86     0          0.09       0          0
08135            458.36     0          0.18       0          0
08134            458.01     0          0.14       0          0
08133-T          456.53     0          0.08       0          0
08132            456.20     0          0.04       0          0
08476            458.00     0          0.10       0          0
85201-D          455.75     0          0.08       0          0
06199-T          457.00     0          0.08       0          0
05664-AG         457.40     0          0.04       0          0
73300B-S         454.40     0          0.05       0          0
73300A-T         460.00     0          0.03       0          0
08029            452.24     0          0.14       0          0
08030            451.98     0          0.12       0          0
08543            451.62     0          0.12       0          0
08688            458.20     0          0.03       0          0
08692            456.38     0          0.13       0          0
08693            456.23     0          0.08       0          0
08694            456.58     0          0.08       0          0
05649-T          456.76     0          0          0          0
08035            459.90     0          0.01       0          0
08034            455.80     0          0.08       0          0
70117            456.30     0          0.05       0          0
08033            458.20     0          0          0          0
08482-D          453.00     0          0.12       0          0
23023a           454.20     0          0.23       0          0
27203            453.70     0          0.21       0          0
23027            453.10     0          0          0          0
23042            457.19     0          0.20       0          0
23041            456.80     0          0.17       0          0
23040-AG         458.08     0          0.17       0          0
66401            460.11     0          0.21       0          0
82439            456.79     0          0.19       0          0
82585-T          457.87     0          0.24       0          0
66440            463.00     0          0.43       0          0
66441            459.50     0          0.37       0          0
23119            459.20     0          0.38       0          0
23120            458.30     0          0.33       0          0
23123            458.30     0          0.27       0          0
23009            456.55     0          0          0          0
23009a           457.99     0          0          0          0
23009b           459.00     0          0          0          0
23122B-T         455.20     0          0.37       0          0
23134            458.20     0          0.25       0          0
23133            456.20     0          0.26       0          0
76629            453.40     0          0.28       0          0
76166            456.10     0          0.23       0          0
53160            455.50     0          0.22       0          0
23128            458.50     0          0.24       0          0
23126-T          458.60     0          0.24       0          0
23124            459.00     0          0.17       0          0
23127            463.43     0          0.16       0          0
23136            468.71     0          0.13       0          0
11596            469.71     0          0.19       0          0
23111a           453.40     0          0.10       0          0
23111            453.80     0          0.25       0          0
23109            455.10     0          0.19       0          0
23108            458.10     0          0.09       0          0
23118            457.50     0          0.09       0          0
23117            456.70     0          0.09       0          0
23116            455.05     0          0.10       0          0
23114            456.50     0          0.13       0          0
26563            457.50     0          0.14       0          0
08109            435.00     0          1.32       0          0
08106            437.00     0          1.17       0          0
03578            438.00     0          1.16       0          0
03548            446.00     0          1.16       0          0
78049            438.00     0          0.88       0          0
016B1b           427.67     0          0          0          0
016B1a           435.00     0          0          0          0
73270D-S         431.50     0          0          0          0
69245-BD         441.00     0          0.18       0          0
04049            429.79     0          0.15       0          0
08113            436.33     0          0.17       0          0
08113-T          434.50     0          0.23       0          0
08110-AG         435.51     0          0.15       0          0
08108            436.97     0          0.19       0          0
08108B-T         437.00     0          0.10       0          0
03880            446.17     0          0.10       0          0
78036            448.00     0          0.16       0          0
43995-DO         400.00     0          0          0          0
76568            443.74     0          0          0          0
08638-T          448.00     0          0          0          0
08635B           446.71     0          0.63       0          0
08574-SM         445.67     0          0.37       0          0
03487-T          447.27     0          0.93       0          0
08575            444.83     0          0.80       0          0
08577            448.54     0          0.75       0          0
08579            445.31     0          0.83       0          0
08581            447.85     0          0.75       0          0
08583            447.99     0          0.73       0          0
08584            447.44     0          0.71       0          0
08829            451.52     0          0.75       0          0
08831-T          450.74     0          0.67       0          0
08811            449.17     0          0.76       0          0
08815            449.20     0          0.54       0          0
08818            445.98     0          0.56       0          0
08822            447.73     0          0.54       0          0
78567            449.83     0          0.46       0          0
08491            448.33     0          0.34       0          0
08496-SM         451.56     0          0.11       0          0
77385-T          450.00     0          0          0          0
03552            448.00     0          0.26       0          0
03550            448.00     0          0.09       0          0
03569            449.60     0          0.18       0          0
08510            449.59     0          0.37       0          0
08807            446.01     0          0.44       0          0
08508            447.50     0          0.32       0          0
05339            450.65     0          0          0          0
08506            448.12     0          0.33       0          0
08538-T          446.96     0          0.51       0          0
08542            448.62     0          0.28       0          0
73300A-S         456.86     0          0          0          0
76742            448.17     0          0          0          0
75427-T          456.90     0          0          0          0
04358            450.58     0          0.25       0          0
08837            445.45     0          0.17       0          0
08841            447.71     0          0.21       0          0
78527            449.09     0          0          0          0
08059            448.96     0          0          0          0
77348-T          452.00     0          0.22       0          0
06586-T          454.35     0          0.25       0          0
70125            450.50     0          0.28       0          0
08483-BH         454.10     0          0          0          0
08316            454.60     0          0          0          0
52001-DO         384.00     0          0          0          0
52001            425.48     0          0          0          0
52002            455.82     0          0          0          0
43964            456.03     0          0          0          0
189D1            441.64     0          0.47       0          0
79036-T          442.07     0          0.58       0          0
08727            444.96     0          0.43       0          0
08597            445.16     0          0.42       0          0
08598            442.36     0          0.41       0          0
08600            450.83     0          0.45       0          0
08601            450.25     0          0.42       0          0
08604            446.08     0          0.44       0          0
08802            450.09     0          0.43       0          0
08606            450.50     0          0.45       0          0
08607-D          448.25     0          0.43       0          0
08595-SM         447.86     0          0.49       0          0
08082            445.88     0          0.14       0          0
08594            443.69     0          0.24       0          0
08083            443.99     0          0.24       0          0
08090            446.63     0          0.17       0          0
74625            449.39     0          0.08       0          0
08091-AG         446.82     0          0.08       0          0
08091-T          449.00     0          0.06       0          0
08092            445.43     0          0          0          0
08562            443.04     0          0          0          0
03652-X          448.77     0          0          0          0
08044            453.24     0          0          0          0
08738            450.27     0          0          0          0
08043            449.30     0          0          0          0
08042            450.12     0          0          0          0
75342-T          451.02     0          0          0          0
08598-BH         441.00     0          0.11       0          0
08602            448.00     0          0.29       0          0
08615            444.80     0          0.66       0          0
08616-T          444.60     0          0.26       0          0
79006-T          442.40     0          0.12       0          0
08618            443.50     0          0.17       0          0
03364            445.30     0          0.05       0          0
08627            450.30     0          0.24       0          0
08626            449.30     0          0.16       0          0
08625B-D         450.10     0          0.16       0          0
08624            452.30     0          0.15       0          0
08630            444.80     0          0.01       0          0
08630-T          452.10     0          0.14       0          0
08619            446.39     0          0.18       0          0
08620            448.29     0          0.13       0          0
08623            452.00     0          0          0          0
08591            443.55     0          0.28       0          0
08590            450.23     0          0.25       0          0
08729-T          452.00     0          0.27       0          0
08729-Ta         452.00     0          0.13       0          0
08729            451.89     0          0.26       0          0
08589-SM         453.28     0          0.28       0          0
08080            443.94     0          0.31       0          0
08588            448.98     0          0.19       0          0
08586            447.92     0          0.28       0          0
03643-T          447.77     0          0.18       0          0
08091            450.07     0          0.03       0          0
08094            449.33     0          0.13       0          0
08096            450.18     0          0.08       0          0
08097            455.60     0          0.11       0          0
08099-AG         452.00     0          0.09       0          0
04208            455.22     0          0          0          0
08099            454.91     0          0.10       0          0
43926            454.53     0          0.13       0          0
04206            454.94     0          0          0          0
08060            450.00     0          0          0          0
25730-T          450.00     0          0          0          0
25769            450.00     0          0          0          0
75342-AG         451.00     0          0          0          0
08015            444.77     0          0.53       0          0
78019            444.90     0          0.31       0          0
08804            444.70     0          0.62       0          0
08805            445.30     0          0.43       0          0
08101            449.50     0          0.54       0          0
08806            448.60     0          0.61       0          0
43962            448.80     0          0.57       0          0
08608            450.00     0          0.61       0          0
08608-AG         448.20     0          0.54       0          0
74638            450.80     0          0          0          0
08596            448.00     0          0          0          0
08095            449.50     0          0          0          0
08098            455.80     0          0          0          0
08045            452.80     0          0.01       0          0
08046            455.40     0          0.06       0          0
08047            453.70     0          0.12       0          0
08762            455.40     0          0.10       0          0
08761-SM         456.70     0          0.09       0          0
78096-T          458.00     0          0          0          0
78107-T          458.60     0          0.02       0          0
78082-T          457.20     0          0.04       0          0
08761-T          455.00     0          0.09       0          0
04250            444.00     0          0.68       0          0
04251            450.10     0          0.46       0          0
04252            443.50     0          0.72       0          0
04253            446.30     0          0.50       0          0
03644            446.80     0          0.77       0          0
03636            447.30     0          0.46       0          0
03636-S          447.80     0          0.35       0          0
03636-D          455.00     0          0.68       0          0
03140-D          451.00     0          0.65       0          0
03634            453.80     0          0.49       0          0
03126            456.40     0          0.57       0          0
03125            454.80     0          0.47       0          0
03122            453.70     0          0.57       0          0
03121            452.30     0          0.48       0          0
08752-DO         424.20     0          0          0          0
78122-T          443.00     0          0          0          0
52612            460.00     0          0.24       0          0
053B7            460.00     0          0.02       0          0
053B7a           457.60     0          0.09       0          0
053B7b           446.65     0          0          0          0
78122-Ta         446.10     0          0          0          0
78122-Tb         445.00     0          0          0          0
30471            446.00     0          0.08       0          0
150A7            448.00     0          0.07       0          0
78115-DO         420.46     0          0          0          0
25655-DR         451.08     0          0          0          0
25655-T          451.39     0          0          0          0
78113-DR         451.62     0          0          0          0
25239b           451.85     0          0          0          0
52560            451.40     0          0          0          0
52560a           452.00     0          0          0          0
25239a           453.63     0          0          0          0
25239            455.20     0          0          0          0
25652            455.80     0          0.08       0          0
30336            456.20     0          0.12       0          0
050H1            456.25     0          0.10       0          0
25656            456.00     0          0.06       0          0
25664            457.00     0          0.13       0          0
155G1            457.10     0          0.04       0          0
52560b           457.20     0          0.09       0          0
25664a           456.00     0          0.02       0          0
25217            453.63     0          0          0          0
52538            453.40     0          0.10       0          0
52561            452.70     0          0.04       0          0
25239c           451.85     0          0          0          0
30338            460.20     0          0.07       0          0
052K1            460.20     0          0.03       0          0
78065            463.00     0          0.04       0          0
159J1            449.00     0          0          0          0
30467-DO         412.47     0          0          0          0
13956            458.00     0          0.03       0          0
051L1            458.10     0          0.02       0          0
52563            457.40     0          0.05       0          0
25658-T          450.20     0          0          0          0
25658-ST         450.10     0          0          0          0
78110            459.00     0          0.04       0          0
69250-DO         429.50     0          0          0          0
69256a           433.14     0          0          0          0
69256            433.14     0          0.53       0          0
08076            442.50     0          0.30       0          0
75710-PS         438.00     0          0.13       0          0
03118            463.00     0          0.17       0          0
08088            443.55     0          0.20       0          0
08710            444.32     0          0.52       0          0
08075            439.87     0          0.37       0          0
78512            452.27     0          0.37       0          0
08713            454.60     0          0.22       0          0
78510            456.71     0          0.26       0          0
08073-D          452.60     0          0.13       0          0
08722            451.66     0          0.39       0          0
08724            458.30     0          0.13       0          0
75375            453.87     0          0.29       0          0
08731            451.39     0          0.07       0          0
08736            451.41     0          0.19       0          0
08086            458.70     0          0.28       0          0
78509            454.60     0          0.17       0          0
08048            453.40     0          0.31       0          0
08744            458.70     0          0.16       0          0
08051            455.40     0          0.21       0          0
08053            453.60     0          0.11       0          0
08055            452.30     0          0.24       0          0
08074            441.21     0          0.05       0          0
08079            452.96     0          0.11       0          0
08072            452.00     0          0.30       0          0
07721            452.92     0          0.36       0          0
08742            452.58     0          0.19       0          0
07643            454.04     0          0.13       0          0
08064            453.42     0          0.15       0          0
08066            454.77     0          0.21       0          0
08739            456.33     0          0.09       0          0
190F1            452.26     0          0.19       0          0
08749-T          452.10     0          0.47       0          0
08749            440.95     0          0          0          0
75151-T          459.50     0          0.19       0          0
75096-T          462.00     0          0.13       0          0
78105-T          460.00     0          0.24       0          0
08759-T          460.50     0          0.15       0          0
023Q1            464.20     0          0.17       0          0
75363-T          465.00     0          0.17       0          0
08780            462.80     0          0.06       0          0
057R1            462.30     0          0.16       0          0
50084            462.50     0          0.09       0          0
75651            463.00     0          0.14       0          0
058W1            459.20     0          0.14       0          0
08777            462.00     0          0.04       0          0
08776            462.50     0          0.12       0          0
08775            462.00     0          0.03       0          0
08772            464.19     0          0.04       0          0
72620-DO         418.49     0          0          0          0
50018            438.01     0          0          0          0
13749            459.24     0          0          0          0
72611a           461.76     0          0          0          0
160S1b           463.02     0          0          0          0
25843            462.50     0          0          0          0
72613            461.76     0          0          0          0
75359-DO         409.65     0          0          0          0
75358            428.00     0          0          0          0
75222-T          437.00     0          0          0          0
08552            444.00     0          0          0          0
08555            443.60     0          0          0          0
08557            452.47     0          0          0          0
08557a           457.00     0          0          0          0
08557b           459.50     0          0          0          0
08559-X          460.10     0          0.10       0          0
26051-ST         460.70     0          0.12       0          0
049V1-SM         444.00     0          0          0          0
50038            444.00     0          0          0          0
25630            444.00     0          0          0          0
049V1-SMa        444.00     0          0          0          0
50088-PS         444.00     0          0          0          0
08905            459.40     0          0.08       0          0
08904            459.00     0          0.04       0          0
08903            458.70     0          0.06       0          0
50011a           415.00     0          0          0          0
50011            428.92     0          0          0          0
08786            441.94     0          0.06       0          0
75279            465.02     0          0.13       0          0
68415            444.45     0          0          0          0
77220a           463.00     0          0          0          0
77220            465.02     0          0          0          0
77179a           463.00     0          0          0          0
77179            462.50     0          0          0          0
77218            461.20     0          0          0          0
77250-D          461.20     0          0.05       0          0
77166-D          458.87     0          0.08       0          0
77164-D          457.20     0          0.04       0          0
08884            455.13     0          0.04       0          0
77189            458.62     0          0.04       0          0
25577            458.06     0          0.06       0          0
25042            458.04     0          0.06       0          0
77190            458.06     0          0          0          0
77138A-S         461.18     0          0.03       0          0
08896            458.91     0          0.06       0          0