;; SWMM5 .inp converted from XPSWMM .xp file
;; Generated by XPSWMM Card Reader
;; Source format: XP_CARD | Original title: (none)

[TITLE]
;;Project Title/Notes
Converted from XPSWMM .xp file

[OPTIONS]
FLOW_UNITS           CMS
INFILTRATION         HORTON
FLOW_ROUTING         DYNWAVE
LINK_OFFSETS         DEPTH
MIN_SLOPE            0.0
ALLOW_PONDING        NO
SKIP_STEADY_STATE    NO
INERTIAL_DAMPING     PARTIAL
NORMAL_FLOW_LIMITED  BOTH

[JUNCTIONS]
;;Name           Elev       MaxDepth   InitDepth  SurDepth   Aponded
;;-------------- ---------- ---------- ---------- ---------- ----------
KAMNODE1         187.88     0          0          0          0
KAMNODE2         187.20     0          0          0          0
RRK8             187.20     0          0          0          0
RK8              188.20     0          0          0          0
D-RK8            187.46     0          0          0          0
RK8OVF           188.20     0          0          0          0
RRK9             188.50     0          0          0          0
O2               188.62     0          0          0          0
RK9              188.40     0          0          0          0
RK9OVF           188.40     0          0          0          0
O13              189.18     0          0          0          0
O10              188.69     0          0          0          0
O6               188.50     0          0          0          0
O15              189.38     0          0          0          0
O14              189.15     0          0          0          0
O12              189.06     0          0          0          0
O11              188.79     0          0          0          0
O9               189.16     0          0          0          0
O8               188.69     0          0          0          0
O7               188.71     0          0          0          0
O5               188.54     0          0          0          0
O4               188.62     0          0          0          0
O3               188.71     0          0          0          0
N31              188.22     0          0          0          0
N41              187.75     0          0          0          0
N51              188.18     0          0          0          0
N61              187.93     0          0          0          0
N71              188.12     0          0          0          0
N91              188.88     0          0          0          0
N81              188.66     0          0          0          0
N101             188.06     0          0          0          0
N111             188.33     0          0          0          0
N131             188.39     0          0          0          0
N121             188.34     0          0          0          0
N141             188.82     0          0          0          0

[CONDUITS]
;;Name           From             To               Length     Roughness  InOffset   OutOffset  InitFlow   MaxFlow
;;-------------- ---------------- ---------------- ---------- ---------- ---------- ---------- ---------- ----------
KAM16            KAMNODE2         KAMNODE1         149.00     0.0140     180.09     180.04     0          0
KAM17            RRK8             KAMNODE2         21.30      0.0140     180.10     180.09     0          0
294              D-RK8            RK8              171.90     0.0140     184.49     184.01     0          0
296              RK8              RK8OVF           100.00     0.0140     184.20     183.74     0          0
KAM18            RRK9             RRK8             124.10     0.0140     180.19     180.10     0          0
301              O2               RK9              183.20     0.0140     183.74     183.71     0          0
304              RK9              RK9OVF           100.00     0.0140     183.97     183.40     0          0
1468             O13              O10              125.90     0.0140     184.53     184.44     0          0
1470             O10              O6               134.70     0.0140     184.12     184.08     0          0
1471             O6               O2               137.60     0.0140     184.08     183.74     0          0
1474             O15              O14              230.10     0.0140     186.76     186.06     0          0
1475             O14              O13              190.50     0.0140     186.06     185.74     0          0
1478             O12              O11              193.90     0.0140     185.53     185.00     0          0
1479             O11              O10              275.20     0.0140     185.00     184.40     0          0
1482             O9               O8               183.20     0.0140     186.16     185.41     0          0
1484             O8               O7               173.10     0.0140     185.41     184.88     0          0
1485             O7               O6               162.80     0.0140     184.88     184.40     0          0
1490             O5               O4               39.60      0.0140     185.71     185.51     0          0
1492             O4               O3               115.80     0.0140     185.51     185.11     0          0
1493             O3               O2               182.90     0.0140     185.11     184.66     0          0
1495             N31              D-RK8            196.90     0.0140     184.88     184.49     0          0
1497             N41              N31              200.60     0.0140     185.50     184.92     0          0
1499             N51              N31              98.10      0.0140     185.14     184.97     0          0
2000             N61              N51              201.50     0.0140     185.82     185.14     0          0
1503             N71              N51              164.00     0.0140     185.47     185.14     0          0
1506             N91              N81              120.20     0.0140     186.06     185.72     0          0
1507             N81              N71              126.00     0.0140     185.72     185.47     0          0
1509             N101             N71              97.50      0.0140     185.75     185.47     0          0
1511             N111             N101             101.50     0.0140     186.04     185.75     0          0
1514             N131             N121             66.40      0.0140     186.49     186.26     0          0
1515             N121             N111             66.40      0.0140     186.26     186.04     0          0
1517             N141             N111             37.00      0.0140     186.17     186.04     0          0

[ORIFICES]
;;Name           From             To               Type       Offset     Qcoeff     Gated    CloseTime
;;-------------- ---------------- ---------------- ---------- ---------- ---------- -------- ----------
RK9-OR           RK9              RRK9             SIDE       183.57     0.650      NO       0
RK8-OR           RK8              RRK8             SIDE       183.78     0.650      NO       0

[XSECTIONS]
;;Link           Shape        Geom1      Geom2      Geom3      Geom4      Barrels
;;-------------- ------------ ---------- ---------- ---------- ---------- ----------
KAM16            CIRCULAR     1.27       0          0          0          1
KAM17            CIRCULAR     1.68       0          0          0          1
294              CIRCULAR     0.38       0          0          0          1
296              CIRCULAR     0.38       0          0          0          1
KAM18            CIRCULAR     1.68       0          0          0          1
301              CIRCULAR     1.20       0.76       0          0          1
304              RECT_CLOSED  0.56       0.76       0          0          1
1468             CIRCULAR     0.53       0          0          0          1
1470             CIRCULAR     0.53       0          0          0          1
1471             CIRCULAR     0.53       0          0          0          1
1474             CIRCULAR     0.31       0          0          0          1
1475             CIRCULAR     0.38       0          0          0          1
1478             CIRCULAR     0.31       0          0          0          1
1479             CIRCULAR     0.38       0          0          0          1
1482             CIRCULAR     0.31       0          0          0          1
1484             CIRCULAR     0.38       0          0          0          1
1485             CIRCULAR     0.38       0          0          0          1
1490             CIRCULAR     0.31       0          0          0          1
1492             CIRCULAR     0.31       0          0          0          1
1493             CIRCULAR     0.38       0          0          0          1
1495             CIRCULAR     0.38       0          0          0          1
1497             CIRCULAR     0.31       0          0          0          1
1499             CIRCULAR     0.38       0          0          0          1
2000             CIRCULAR     0.31       0          0          0          1
1503             CIRCULAR     0.38       0          0          0          1
1506             CIRCULAR     0.31       0          0          0          1
1507             CIRCULAR     0.31       0          0          0          1
1509             CIRCULAR     0.31       0          0          0          1
1511             CIRCULAR     0.31       0          0          0          1
1514             CIRCULAR     0.31       0          0          0          1
1515             CIRCULAR     0.31       0          0          0          1
1517             CIRCULAR     0.31       0          0          0          1
RK9-OR           RECT_CLOSED  0.13       0          0          0          
RK8-OR           RECT_CLOSED  0.13       0          0          0          

[LOSSES]
;;Link           Inlet      Outlet     Average    Flap Gate
;;-------------- ---------- ---------- ---------- ----------
KAM16            0          0          0          NO
KAM17            0          0          0          NO
294              0          0          0          NO
296              0          0          0          NO
KAM18            0          0          0          NO
301              0          0          0          NO
304              0          0          0          NO
1468             0          0          0          NO
1470             0          0          0          NO
1471             0          0          0          NO
1474             0          0          0          NO
1475             0          0          0          NO
1478             0          0          0          NO
1479             0          0          0          NO
1482             0          0          0          NO
1484             0          0          0          NO
1485             0          0          0          NO
1490             0          0          0          NO
1492             0          0          0          NO
1493             0          0          0          NO
1495             0          0          0          NO
1497             0          0          0          NO
1499             0          0          0          NO
2000             0          0          0          NO
1503             0          0          0          NO
1506             0          0          0          NO
1507             0          0          0          NO
1509             0          0          0          NO
1511             0          0          0          NO
1514             0          0          0          NO
1515             0          0          0          NO
1517             0          0          0          NO

[INFLOWS]
;;Node           Constituent  Time Series      Type     Mfactor  Sfactor  Baseline Pattern
;;-------------- ------------ ---------------- -------- -------- -------- -------- --------
D-RK8            FLOW         ""               FLOW     1.0      1.0      0.01
O2               FLOW         ""               FLOW     1.0      1.0      0.00

[COORDINATES]
;;Node           X-Coord            Y-Coord
;;-------------- ------------------ ------------------
KAMNODE1         651.64             201.64            
KAMNODE2         676.64             201.64            
RRK8             726.64             201.64            
RK8              726.64             151.64            
D-RK8            726.64             101.64            
RK8OVF           676.64             251.64            
RRK9             776.64             201.64            
O2               776.64             101.64            
RK9              776.64             151.64            
RK9OVF           726.64             251.64            
O13              951.64             101.64            
O10              876.64             101.64            
O6               826.64             101.64            
O15              951.64             -73.36            
O14              951.64             26.64             
O12              876.64             176.64            
O11              876.64             101.64            
O9               826.64             -98.36            
O8               826.64             -23.36            
O7               826.64             26.64             
O5               776.64             -23.36            
O4               776.64             26.64             
O3               776.64             76.64             
N31              726.64             51.64             
N41              676.64             51.64             
N51              726.64             1.64              
N61              676.64             1.64              
N71              726.64             -48.36            
N91              776.64             -48.36            
N81              751.64             -48.36            
N101             726.64             -98.36            
N111             726.64             -123.36           
N131             651.64             -123.36           
N121             676.64             -123.36           
N141             726.64             -148.36           

[MAP]
DIMENSIONS 651.64 -148.36 951.64 251.64
Units      None

[REPORT]
INPUT            YES
SUBCATCHMENTS    ALL
NODES            ALL
LINKS            ALL



