;; SWMM5 .inp converted from XPSWMM .xp file
;; Generated by XPSWMM Card Reader
;; Source format: XP_CARD | Original title: ST. JOHN THE BAPTIST PARISH, BASIN 12W, 13W AND 14W

[TITLE]
;;Project Title/Notes
ST. JOHN THE BAPTIST PARISH, BASIN 12W, 13W AND 14W

[OPTIONS]
FLOW_UNITS           CFS
INFILTRATION         HORTON
FLOW_ROUTING         DYNWAVE
LINK_OFFSETS         DEPTH
MIN_SLOPE            0.0
ALLOW_PONDING        NO
SKIP_STEADY_STATE    NO
ROUTING_STEP         00:00:15
VARIABLE_STEP        0.75
INERTIAL_DAMPING     PARTIAL
NORMAL_FLOW_LIMITED  BOTH

[JUNCTIONS]
;;Name           Elev       MaxDepth   InitDepth  SurDepth   Aponded
;;-------------- ---------- ---------- ---------- ---------- ----------
2                17.00      0          0          0          0
3                17.00      0          0          0          0
5                9.65       0          0          0          0
7                5.70       0          0          0          0
9                16.35      0          0          0          0
10               9.70       0          0          0          0
14               5.70       0          0          0          0
18               17.10      0          0          0          0
19               9.30       0          0          0          0
21               6.00       0          0          0          0
24               4.00       0          0          0          0
27               4.00       0          0          0          0
29               15.35      0          0          0          0
30               9.52       0          0          0          0
33               3.54       0          0          0          0
35               17.50      0          0          0          0
36               17.50      0          0          0          0
38               17.10      0          0          0          0
40               13.60      0          0          0          0
42               13.30      0          0          0          0
44               9.00       0          0          0          0
46               4.00       0          0          0          0
48               4.35       0          0          0          0
50               5.20       0          0          0          0
52               7.00       0          0          0          0
54               7.00       0          0          0          0
56               4.10       0          0          0          0
58               2.00       0          0          0          0
60               5.80       0          0          0          0
62               5.10       0          0          0          0
64               2.15       0          0          0          0
66               3.50       0          0          0          0
67               3.50       0          0          0          0
69               2.00       0          0          0          0
71               2.10       0          0          0          0
73               0          0          0          0          0
75               2.00       0          0          0          0
79               8.00       0          0          0          0
80               10.10      0          0          0          0
85               16.00      0          0          0          0
86               9.20       0          0          0          0
90               16.00      0          0          0          0
91               10.20      0          0          0          0
93               10.20      0          0          0          0
95               9.00       0          0          0          0
97               9.10       0          0          0          0
99               11.30      0          0          0          0
101              10.60      0          0          0          0
103              9.00       0          0          0          0
105              9.50       0          0          0          0
109              5.10       0          0          0          0
110              5.50       0          0          0          0
112              4.50       0          0          0          0
114              5.50       0          0          0          0
116              5.50       0          0          0          0
118              8.70       0          0          0          0
120              8.70       0          0          0          0
123              4.30       0          0          0          0
126              5.20       0          0          0          0
131              2.00       0          0          0          0
132              2.00       0          0          0          0
135              3.00       0          0          0          0
137              7.00       0          0          0          0
140              7.00       0          0          0          0
142              4.50       0          0          0          0
145              1.00       0          0          0          0
147              1.00       0          0          0          0
149              0.50       0          0          0          0
152              1.00       0          0          0          0
156              17.00      0          0          0          0
157              10.80      0          0          0          0
159              11.70      0          0          0          0
160              10.50      0          0          0          0
164              16.00      0          0          0          0
165              16.00      0          0          0          0
167              10.00      0          0          0          0
170              17.40      0          0          0          0
172              16.75      0          0          0          0
174              16.00      0          0          0          0
176              16.00      0          0          0          0
178              16.00      0          0          0          0
180              16.50      0          0          0          0
182              12.00      0          0          0          0
183              9.00       0          0          0          0
186              9.00       0          0          0          0
188              11.50      0          0          0          0
189              10.90      0          0          0          0
191              10.30      0          0          0          0
193              10.30      0          0          0          0
195              7.50       0          0          0          0
197              7.50       0          0          0          0
199              12.50      0          0          0          0
200              12.50      0          0          0          0
203              8.50       0          0          0          0
205              8.00       0          0          0          0
207              14.30      0          0          0          0
208              12.30      0          0          0          0
210              11.60      0          0          0          0
212              13.00      0          0          0          0
214              11.40      0          0          0          0
217              8.30       0          0          0          0
219              8.30       0          0          0          0
221              15.30      0          0          0          0
222              14.20      0          0          0          0
224              11.00      0          0          0          0
226              11.00      0          0          0          0
229              13.70      0          0          0          0
231              8.90       0          0          0          0
233              6.60       0          0          0          0
234              6.60       0          0          0          0
236              8.00       0          0          0          0
237              8.00       0          0          0          0
239              8.30       0          0          0          0
242              8.00       0          0          0          0
244              3.60       0          0          0          0
246              2.10       0          0          0          0
248              4.00       0          0          0          0
252              8.40       0          0          0          0
253              10.00      0          0          0          0
255              10.00      0          0          0          0
257              6.20       0          0          0          0
260              6.20       0          0          0          0
262              6.00       0          0          0          0
266              16.00      0          0          0          0
268              10.70      0          0          0          0
272              5.00       0          0          0          0
274              5.60       0          0          0          0
278              5.50       0          0          0          0
280              16.00      0          0          0          0
283              8.90       0          0          0          0
285              8.30       0          0          0          0
287              8.00       0          0          0          0
290              8.00       0          0          0          0
292              8.00       0          0          0          0
294              8.00       0          0          0          0
296              5.75       0          0          0          0
299              4.30       0          0          0          0
303              6.00       0          0          0          0
305              3.70       0          0          0          0
307              5.00       0          0          0          0
309              5.00       0          0          0          0
311              4.00       0          0          0          0
312              4.10       0          0          0          0
316              5.70       0          0          0          0
319              4.00       0          0          0          0
322              4.00       0          0          0          0
324              4.00       0          0          0          0
328              3.50       0          0          0          0
330              3.80       0          0          0          0
334              3.50       0          0          0          0
336              5.50       0          0          0          0
338              6.00       0          0          0          0
340              6.00       0          0          0          0
342              2.50       0          0          0          0
344              3.50       0          0          0          0
345              3.50       0          0          0          0
347              4.00       0          0          0          0
349              3.50       0          0          0          0
350              3.00       0          0          0          0
353              3.50       0          0          0          0
355              3.50       0          0          0          0
357              6.50       0          0          0          0
359              6.50       0          0          0          0
361              6.50       0          0          0          0
363              6.00       0          0          0          0
365              5.50       0          0          0          0
368              5.50       0          0          0          0
372              5.50       0          0          0          0
374              4.00       0          0          0          0
376              4.00       0          0          0          0
378              3.00       0          0          0          0
380              5.50       0          0          0          0
383              6.50       0          0          0          0
385              6.00       0          0          0          0
387              5.00       0          0          0          0
389              5.50       0          0          0          0
390              5.50       0          0          0          0
392              5.00       0          0          0          0
395              8.00       0          0          0          0
397              6.50       0          0          0          0
401              6.00       0          0          0          0
403              6.00       0          0          0          0
405              4.50       0          0          0          0
407              5.00       0          0          0          0
409              4.50       0          0          0          0
411              4.50       0          0          0          0
415              5.00       0          0          0          0
417              3.70       0          0          0          0
419              6.00       0          0          0          0
420              6.00       0          0          0          0
423              6.50       0          0          0          0
425              6.50       0          0          0          0
427              6.00       0          0          0          0
429              6.00       0          0          0          0
431              7.50       0          0          0          0
433              7.50       0          0          0          0
435              6.50       0          0          0          0
438              6.50       0          0          0          0
442              7.00       0          0          0          0
443              6.50       0          0          0          0
445              4.26       0          0          0          0
448              4.06       0          0          0          0
450              3.50       0          0          0          0
452              5.00       0          0          0          0
456              3.50       0          0          0          0
459              1.60       0          0          0          0
460              1.00       0          0          0          0
463              1.00       0          0          0          0
464              1.10       0          0          0          0
466              1.00       0          0          0          0
469              0.50       0          0          0          0
472              0          0          0          0          0
475              0.50       0          0          0          0
479              2.50       0          0          0          0
485              10.00      0          0          0          0
487              10.00      0          0          0          0
489              16.00      0          0          0          0
491              16.70      0          0          0          0
497              1.50       0          0          0          0
500              1.45       0          0          0          0
503              0          0          0          0          0
507              10.80      0          0          0          0
508              9.40       0          0          0          0
509              10.00      0          0          0          0
510              5.80       0          0          0          0
511              4.50       0          0          0          0
512              7.00       0          0          0          0
514              2.80       0          0          0          0
515              3.60       0          0          0          0
516              8.20       0          0          0          0
517              7.00       0          0          0          0
521              5.20       0          0          0          0
522              5.30       0          0          0          0
523              6.50       0          0          0          0
524              6.50       0          0          0          0

[CONDUITS]
;;Name           From             To               Length     Roughness  InOffset   OutOffset  InitFlow   MaxFlow
;;-------------- ---------------- ---------------- ---------- ---------- ---------- ---------- ---------- ----------
4                2                3                48.00      0.0240     13.42      13.73      0          0
6                3                5                1875.00    0.0400     13.07      7.83       0          0
8                5                7                1880.00    0.0400     7.83       4.00       0          0
11               9                10               1800.00    0.0400     15.35      8.06       0          0
15               10               14               1890.00    0.0140     8.06       4.10       0          0
20               18               19               1900.00    0.0400     15.40      7.53       0          0
22               19               21               1850.00    0.0400     7.50       4.20       0          0
23               14               21               29.00      0.0240     3.47       3.48       0          0
25               21               24               1000.00    0.0400     3.30       1.28       0          0
28               24               27               41.00      0.0140     1.21       0.96       0          0
31               29               30               1300.00    0.0400     13.35      7.12       0          0
34               30               33               3000.00    0.0400     7.12       1.14       0          0
37               35               36               77.00      0.0240     14.95      15.50      0          0
39               36               38               620.00     0.0400     16.67      15.37      0          0
41               38               40               1270.00    0.0400     15.37      12.16      0          0
43               40               42               700.00     0.0400     12.16      10.57      0          0
45               42               44               1900.00    0.0400     10.57      6.28       0          0
47               44               46               2860.00    0.0400     6.28       0.92       0          0
49               46               48               600.00     0.0400     0.41       0.82       0          0
51               48               50               400.00     0.0400     0.82       1.06       0          0
53               50               52               920.00     0.0400     1.06       1.96       0          0
55               52               54               49.00      0.0240     1.96       1.91       0          0
57               54               56               2080.00    0.0400     1.43       0.59       0          0
259.1            259.2            259.3            203.00     0.0140     -2.96      -2.71      0          0
63               60               62               2150.00    0.0400     1.53       0.86       0          0
265.1            265.2            64               202.00     0.0140     -2.80      -1.89      0          0
268.1            268.2            268.3            48.00      0.0240     -1.23      -0.62      0          0
70               67               69               2550.00    0.0400     -1.59      -2.49      0          0
72               71               66               650.00     0.0400     1.54       0.86       0          0
74               73               67               650.00     0.0400     0.67       -0.20      0          0
276.1            276.2            276.3            218.00     0.0140     -2.60      -3.00      0          0
77               69               62               970.00     0.0400     0.15       0.11       0          0
78               75               64               980.00     0.0400     0.13       0.05       0          0
81               79               80               3000.00    0.0400     6.63       6.67       0          0
87               85               86               3000.00    0.0400     13.91      7.16       0          0
88               80               487              1130.00    0.0400     6.05       5.05       0          0
289.1            86               80               0          0          0          0          0          0
92               90               91               2900.00    0.0400     14.00      8.12       0          0
94               91               93               17.00      0.0240     7.53       7.18       0          0
96               93               95               50.00      0.0400     7.18       6.78       0          0
98               95               97               13.00      0.0140     6.78       6.86       0          0
102              99               101              2600.00    0.0400     8.65       7.91       0          0
104              101              103              17.00      0.0140     7.27       7.09       0          0
106              103              105              30.00      0.0400     7.09       7.11       0          0
107              105              97               36.00      0.0240     7.11       7.03       0          0
108              97               86               0          0          0          0          0          0
111              109              110              2650.00    0.0400     0.02       -0.03      0          0
113              110              112              2270.00    0.0400     -0.03      1.22       0          0
115              110              114              240.00     0.0400     0.11       0.10       0          0
117              114              116              17.00      0.0140     1.73       1.65       0          0
119              116              118              1060.00    0.0400     0.10       -0.05      0          0
121              118              120              21.00      0.0140     5.05       5.15       0          0
122              120              46               660.00     0.0400     -0.10      -0.31      0          0
124              120              123              600.00     0.0400     -0.02      0.52       0          0
125              123              48               600.00     0.0400     -0.44      0.73       0          0
127              123              126              380.00     0.0400     1.00       0.94       0          0
128              126              50               650.00     0.0400     0.92       1.06       0          0
133              131              132              370.00     0.0400     0.57       0.24       0          0
134              132              126              16.00      0.0140     -1.82      -2.12      0          0
136              135              132              1200.00    0.0400     0.05       -0.96      0          0
138              52               137              1200.00    0.0400     1.96       1.00       0          0
139              137              112              820.00     0.0400     1.00       2.48       0          0
141              54               140              1210.00    0.0400     -0.91      -0.06      0          0
143              140              142              870.00     0.0400     -0.06      0.48       0          0
144              137              140              49.00      0.0240     1.07       1.02       0          0
146              142              145              1720.00    0.0400     1.22       -1.30      0          0
348.1            348.2            348.3            225.00     0.0140     -5.30      -4.95      0          0
150              149              56               980.00     0.0400     -0.40      -0.50      0          0
151              149              145              1010.00    0.0400     -0.40      -1.18      0          0
153              152              58               980.00     0.0400     -0.23      0.13       0          0
154              152              147              1050.00    0.0400     -0.23      -0.46      0          0
155              149              152              97.00      0.0140     -1.81      -1.41      0          0
158              156              157              2900.00    0.0400     13.89      7.53       0          0
161              159              160              900.00     0.0400     9.12       7.22       0          0
162              160              157              350.00     0.0400     7.22       7.53       0          0
166              164              489              40.00      0.0240     13.11      13.23      0          0
168              165              167              3000.00    0.0400     14.53      8.60       0          0
169              167              268              1080.00    0.0400     5.86       6.86       0          0
171              170              164              300.00     0.0400     15.19      13.51      0          0
173              170              172              1670.00    0.0400     15.19      15.15      0          0
175              172              174              1000.00    0.0400     15.15      14.88      0          0
177              174              176              388.00     0.0140     13.90      13.72      0          0
179              176              178              54.00      0.0240     13.55      13.67      0          0
181              180              176              17.00      0.0140     14.58      14.01      0          0
184              182              183              1800.00    0.0400     9.74       5.53       0          0
185              183              167              360.00     0.0400     5.29       5.64       0          0
187              183              186              24.00      0.0240     4.73       4.62       0          0
190              188              189              500.00     0.0400     10.82      9.42       0          0
192              189              191              500.00     0.0400     8.45       7.80       0          0
194              191              193              16.00      0.0140     7.55       8.04       0          0
196              193              195              1350.00    0.0400     7.12       4.14       0          0
198              195              197              26.00      0.0240     5.76       5.69       0          0
201              199              200              14.00      0.0140     8.95       7.97       0          0
204              200              203              1670.00    0.0400     8.05       5.68       0          0
206              203              205              29.00      0.0240     6.12       5.62       0          0
209              207              208              200.00     0.0400     13.20      11.27      0          0
211              208              210              80.00      0.0400     11.27      9.90       0          0
215              212              214              400.00     0.0400     12.11      9.84       0          0
216              214              210              50.00      0.0400     9.84       9.84       0          0
218              210              217              1950.00    0.0400     9.84       6.26       0          0
220              217              219              24.00      0.0140     5.14       5.02       0          0
223              221              222              1180.00    0.0400     14.17      11.42      0          0
225              222              224              1250.00    0.0400     12.70      8.51       0          0
227              224              226              84.00      0.0240     7.69       7.40       0          0
230              178              229              1100.00    0.0400     14.00      11.65      0          0
232              229              231              1370.00    0.0400     11.65      7.71       0          0
235              234              233              32.00      0.0140     2.87       3.12       0          0
238              236              237              190.00     0.0400     5.10       4.85       0          0
240              237              239              23.00      0.0140     4.56       4.68       0          0
241              239              234              2000.00    0.0400     4.87       3.13       0          0
243              242              233              2000.00    0.0400     5.00       3.58       0          0
245              510              244              1800.00    0.0400     3.06       0.86       0          0
247              511              246              1800.00    0.0400     3.49       1.06       0          0
249              246              248              1500.00    0.0800     1.90       3.80       0          0
250              244              248              1500.00    0.0800     3.40       3.80       0          0
251              112              248              920.00     0.0400     1.30       0.80       0          0
254              252              253              650.00     0.0400     5.35       4.02       0          0
256              253              255              21.00      0.0140     2.50       1.93       0          0
258              255              257              1800.00    0.0400     4.02       2.19       0          0
261              257              260              24.00      0.0140     2.33       2.47       0          0
263              260              262              250.00     0.0400     2.00       0.80       0          0
264              233              260              400.00     0.0400     3.20       2.00       0          0
267              266              268              3000.00    0.0400     13.75      7.46       0          0
269              157              268              30.00      0.0400     7.53       7.46       0          0
273              507              262              2850.00    0.0400     8.80       4.00       0          0
275              508              274              2850.00    0.0400     7.87       4.16       0          0
276              262              274              24.00      0.0140     2.59       2.53       0          0
277              274              272              1080.00    0.0400     0.60       0.50       0          0
279              272              278              32.00      0.0140     -1.74      -2.06      0          0
281              280              489              22.00      0.0240     15.15      15.12      0          0
282              509              272              2850.00    0.0400     6.97       1.53       0          0