;; SWMM5 .inp converted from XPSWMM .xp file
;; Generated by XPSWMM Card Reader
;; Source format: XP_CARD | Original title: Kuykendahl Road - Ultimate Section - Concrete Curb and Gutter

[TITLE]
;;Project Title/Notes
Kuykendahl Road - Ultimate Section - Concrete Curb and Gutter

[OPTIONS]
FLOW_UNITS           CFS
INFILTRATION         HORTON
FLOW_ROUTING         DYNWAVE
LINK_OFFSETS         DEPTH
MIN_SLOPE            0.0
ALLOW_PONDING        NO
SKIP_STEADY_STATE    NO
ROUTING_STEP         00:00:120
VARIABLE_STEP        0.75
INERTIAL_DAMPING     PARTIAL
NORMAL_FLOW_LIMITED  BOTH
MAX_TRIALS           100
HEAD_TOLERANCE       0.0033

[JUNCTIONS]
;;Name           Elev       MaxDepth   InitDepth  SurDepth   Aponded
;;-------------- ---------- ---------- ---------- ---------- ----------
345              140.58     0          0          0          0
421              139.90     0          0          0          0
425              140.15     0          0          0          0
429              139.25     0          0          0          0
431              140.15     0          0          0          0
580              139.09     0          0          0          0
582              139.25     0          0          0          0
718              139.64     0          0          0          0
800              140.40     0          0          0          0
735              139.30     0          0          0          0
736              139.75     0          0          0          0
855              140.75     0          0          0          0
866              140.50     0          0          0          0
867              140.60     0          0          0          0
919              136.40     0          0          0          0
920              139.50     0          0          0          0
950              134.14     0          0          0          0
951              135.70     0          0          0          0
952              135.28     0          0          0          0
953              134.50     0          0          0          0
496              137.75     0          0          0          0
500              137.10     0          0          0          0
651              134.33     0          0          0          0
502              136.35     0          0          0          0
504              134.75     0          0          0          0
528              135.80     0          0          0          0
530              135.15     0          0          0          0
534              135.60     0          0          0          0
538              133.65     0          0          0          0
540              133.30     0          0          0          0
544              132.35     0          0          0          0
618              135.15     0          0          0          0
622              134.75     0          0          0          0
661              135.85     0          0          0          0
1011             134.40     0          0          0          0
1015             141.30     0          0          0          0
1042             139.25     0          0          0          0
1071             135.15     0          0          0          0
1076             134.28     0          0          0          0
1088             142.00     0          0          0          0
1093             140.00     0          0          0          0
1102             138.60     0          0          0          0
1104             138.50     0          0          0          0
1109             142.00     0          0          0          0
1110             142.00     0          0          0          0
1117             138.50     0          0          0          0
1121             139.60     0          0          0          0
451              137.00     0          0          0          0
1154             133.15     0          0          0          0
1156             132.35     0          0          0          0
1158             132.85     0          0          0          0
1160             131.95     0          0          0          0
1162             132.55     0          0          0          0
1164             132.30     0          0          0          0
1167             133.45     0          0          0          0
1169             132.55     0          0          0          0
1171             133.55     0          0          0          0
1174             139.75     0          0          0          0
1175             139.75     0          0          0          0
1180             139.30     0          0          0          0
1186             139.09     0          0          0          0
1189             140.15     0          0          0          0
1196             137.50     0          0          0          0
1198             137.50     0          0          0          0
1201             132.55     0          0          0          0
1203             132.30     0          0          0          0
1205             131.95     0          0          0          0
1207             132.35     0          0          0          0
1209             132.35     0          0          0          0
1211             133.30     0          0          0          0
1213             133.65     0          0          0          0
1219             132.55     0          0          0          0
1221             132.30     0          0          0          0
1223             131.95     0          0          0          0
1225             132.35     0          0          0          0
1227             132.35     0          0          0          0
1229             133.30     0          0          0          0
1231             133.65     0          0          0          0
1240             134.75     0          0          0          0
1242             135.85     0          0          0          0
1244             136.40     0          0          0          0
1246             137.00     0          0          0          0
1248             137.35     0          0          0          0
1250             137.35     0          0          0          0
1252             137.00     0          0          0          0
1254             136.40     0          0          0          0
1256             135.85     0          0          0          0
1261             141.00     0          0          0          0
1262             140.50     0          0          0          0
1277             140.25     0          0          0          0
1280             133.00     0          0          0          0
1282             133.00     0          0          0          0
1283             133.00     0          0          0          0
1290             133.50     0          0          0          0
1291             133.00     0          0          0          0
1294             133.00     0          0          0          0
1295             133.00     0          0          0          0
1298             133.00     0          0          0          0
1300             133.00     0          0          0          0
1302             133.00     0          0          0          0
1305             135.50     0          0          0          0
1307             135.50     0          0          0          0

[STORAGE]
;;Name           Elev       MaxDepth   InitDepth  Shape      Curve/Params
;;-------------- ---------- ---------- ---------- ---------- ----------
910              139.62     0          0          FUNCTIONAL 0 0          0
962              141.00     0          0          FUNCTIONAL 0 0          0
961              141.50     0          0          FUNCTIONAL 0 0          0
289              140.65     0          0          FUNCTIONAL 0 0          0
291              142.00     -0.04      0          FUNCTIONAL 0 0          0
307              140.70     0          0          FUNCTIONAL 0 0          0
965              142.00     -0.04      0          FUNCTIONAL 0 0          0
322              140.44     0          0          FUNCTIONAL 0 0          0
419              140.50     0          0          FUNCTIONAL 0 0          0
423              140.25     0          0          FUNCTIONAL 0 0          0
427              140.69     0          0          FUNCTIONAL 0 0          0
456              139.92     0          0          FUNCTIONAL 0 0          0
734              139.30     0          0          FUNCTIONAL 0 0          0
853              140.50     0          0          FUNCTIONAL 0 0          0
954              134.70     6.80       0          FUNCTIONAL 0 0          0
498              136.40     0          0          FUNCTIONAL 0 0          0
690              134.28     0          0          FUNCTIONAL 0 0          0
694              135.60     0          0          FUNCTIONAL 0 0          0
542              134.10     -1.41      0          FUNCTIONAL 0 0          0
1087             144.00     0          0          FUNCTIONAL 0 0          0
1098             142.00     0          0          FUNCTIONAL 0 0          0
1100             143.00     0          0          FUNCTIONAL 0 0          0
1112             142.00     0          0          FUNCTIONAL 0 0          0
435              139.00     0          0          FUNCTIONAL 0 0          0
439              138.90     -0.90      0          FUNCTIONAL 0 0          0
443              137.35     0          0          FUNCTIONAL 0 0          0
445              137.80     -0.30      0          FUNCTIONAL 0 0          0

[CONDUITS]
;;Name           From             To               Length     Roughness  InOffset   OutOffset  InitFlow   MaxFlow
;;-------------- ---------------- ---------------- ---------- ---------- ---------- ---------- ---------- ----------
290              289              421              500.00     0.0800     139.15     138.40     0          0
303              291              289              88.00      0.0140     138.85     138.32     0          0
304              962              1261             104.00     0.0140     136.25     136.40     0          0
305              961              456              154.00     0.0140     135.60     135.40     0          0
308              345              307              550.00     0.0350     138.65     137.90     0          0
314              289              419              430.00     0.0350     138.05     137.17     0          0
321              965              307              88.00      0.0140     137.92     137.90     0          0
323              307              322              1160.00    0.0350     137.90     137.94     0          0
348              345              289              80.00      0.0350     138.58     138.05     0          0
349              307              427              1000.00    0.0800     140.00     139.40     0          0
350              Node_350         Node_1293513     1000.00    0.0350     132.55     130.15     0          0
422              Node_422         Node_1066918     140.00     0.0350     138.70     138.14     0          0
426              423              425              275.00     0.0350     139.25     138.56     0          0
428              427              425              215.00     0.0350     139.10     138.56     0          0
430              427              429              385.00     0.0350     139.10     137.50     0          0
432              431              429              190.00     0.0350     138.40     137.50     0          0
581              735              580              450.00     0.0140     132.86     132.63     0          0
583              580              1015             495.00     0.0140     132.63     132.38     0          0
737              800              718              230.00     0.0350     139.20     138.14     0          0
738              Node_738         Node_1055934     240.00     0.0350     139.24     137.80     0          0
739              736              867              480.00     0.0140     133.32     133.08     0          0
859              800              853              250.00     0.0350     139.20     138.57     0          0
863              Node_863         Node_1055621     210.00     0.0350     139.24     138.40     0          0
868              Node_868         Node_1066934     290.00     0.0350     138.70     137.80     0          0
869              Node_869         Node_1067935     430.00     0.0140     133.08     132.86     0          0
860              419              853              250.00     0.0350     139.20     138.57     0          0
861              Node_861         Node_1374936     32.00      0.0140     134.57     134.51     0          0
875              456              736              150.00     0.0140     135.40     133.32     0          0
876              Node_876         Node_13751067    32.00      0.0140     134.14     134.08     0          0
523              Node_523         Node_10821083    173.00     0.0350     128.79     128.05     0          0
553              Node_553         Node_10831091    344.00     0          128.05     126.64     0          0
806              Node_806         Node_10921089    534.00     0          126.73     125.90     0          0
559              Node_559         Node_10891090    77.00      0          125.90     126.36     0          0
560              Node_560         Node_10901093    50.00      0.0140     126.36     126.00     0          0
557              Node_557         Node_10911092    21.00      0.0140     126.64     126.73     0          0
499              Node_499         Node_11051107    330.00     0.0350     135.75     134.90     0          0
501              Node_501         Node_11091107    250.00     0.0350     135.55     134.90     0          0
648              Node_648         Node_11831119    563.00     0.0140     126.70     126.42     0          0
654              Node_654         Node_11191089    515.00     0.0140     126.42     126.16     0          0
695              Node_695         Node_11251122    908.00     0.0350     133.10     130.73     0          0
503              Node_503         Node_11381189    200.00     0.0350     134.85     134.35     0          0
505              Node_505         Node_11381139    385.00     0.0350     134.85     133.25     0          0
529              Node_529         Node_11421139    210.00     0.0350     134.30     133.25     0          0
531              Node_531         Node_11421144    190.00     0.0350     134.30     133.70     0          0
541              ?                345              285.00     0.0350     132.90     132.15     0          0
543              Node_543         Node_11551153    220.00     0.0350     132.55     131.80     0          0
545              Node_545         Node_11551157    350.00     0.0140     132.55     130.85     0          0
1013             Node_1013        Node_12111153    210.00     0.0350     132.90     131.80     0          0
1016             Node_1016        Node_1215782     600.00     0.0140     132.38     132.08     0          0
537              Node_537         Node_11481152    380.00     0.0350     134.10     132.15     0          0
1035             Node_1035        Node_11481144    145.00     0.0350     134.10     133.70     0          0
1068             Node_1068        Node_1242782     32.00      0.0140     133.50     133.43     0          0
1074             Node_1074        Node_12711183    32.00      0.0140     129.70     129.64     0          0
1077             Node_1077        Node_12761119    42.00      0.0140     127.73     127.42     0          0
1086             910              1121             1750.00    0.0350     130.15     129.27     0          0
1089             ?                950              2250.00    0.0350     136.46     134.21     0          0
1090             ?                951              1500.00    0.0350     134.21     132.71     0          0
1094             322              1093             130.00     0.0140     132.71     132.55     0          0
1096             Node_1096        Node_1309535     90.00      0.0140     132.89     132.71     0          0
1097             582              1277             315.00     0.0140     132.08     131.70     0          0
1099             Node_1099        Node_1298533     3000.00    0          139.42     137.92     0          0
1101             Node_1101        Node_1300524     2000.00    0          139.85     138.85     0          0
1103             322              1102             1645.00    0.0350     137.94     135.99     0          0
1105             ?                496              100.00     0.0350     135.99     135.79     0          0
1106             291              962              430.00     0.0350     138.85     136.25     0          0
1107             291              965              550.00     0.0350     138.85     137.92     0          0
1108             965              1109             1160.00    0.0350     137.92     132.89     0          0
1113             Node_1113        Node_13121310    1500.00    0          136.73     135.98     0          0
1115             Node_1115        Node_13101304    100.00     0.0350     135.98     135.79     0          0
1118             Node_1118        Node_13041317    100.00     0.0350     135.79     135.59     0          0
1119             ?                651              88.00      0.0140     135.98     135.99     0          0
1120             Node_1120        Node_13091310    1645.00    0.0350     132.89     132.71     0          0
1127             Node_1127        Node_13211083    1750.00    0.0350     129.27     128.39     0          0
1129             431              435              465.00     0.0350     138.40     135.94     0          0
1138             ?                502              295.00     0.0350     137.30     135.94     0          0
1139             ?                504              500.00     0.0350     137.30     135.85     0          0
1140             Node_1140        Node_13461334    180.00     0.0350     136.30     135.85     0          0
1147             Node_1147        Node_13461344    520.00     0.0350     136.30     135.00     0          0
1151             423              421              220.00     0.0350     139.25     138.40     0          0
1352.1           ?                538              300.00     0          135.75     135.00     0          0
1153             ?                540              250.00     0.0350     135.55     134.35     0          0
1155             ?                542              310.00     0          131.65     130.85     0          0
1157             ?                544              260.00     0          131.65     130.85     0          0
1159             Node_1159        Node_13581356    190.00     0          131.35     130.85     0          0
1161             Node_1161        Node_13581360    150.00     0          131.35     130.45     0          0
1163             Node_1163        Node_13621360    150.00     0          131.05     130.45     0          0
1165             Node_1165        Node_13621364    240.00     0          131.05     130.45     0          0
1168             Node_1168        Node_13671364    300.00     0          131.60     130.45     0          0
1170             Node_1170        Node_13671369    300.00     0          131.60     130.85     0          0
1172             Node_1172        Node_13711369    395.00     0          131.85     130.85     0          0
1183             ?                618              32.00      0.0140     133.92     133.86     0          0
1188             Node_1188        Node_1386780     32.00      0.0140     134.40     134.33     0          0
1191             Node_1191        Node_13891215    32.00      0.0140     134.56     134.49     0          0
1197             Node_1197        Node_13961477    340.00     0.0140     131.87     131.70     0          0
1200             Node_1200        Node_13981396    32.00      0.0140     131.94     131.87     0          0
1220             Node_1220        Node_14011419    32.00      0.0140     127.85     127.79     0          0
1222             Node_1222        Node_14031421    32.00      0.0140     127.55     127.49     0          0
1224             Node_1224        Node_14051423    32.00      0.0140     127.35     127.29     0          0
1226             Node_1226        Node_14071425    32.00      0.0140     127.18     127.12     0          0
1228             Node_1228        Node_14091427    32.00      0.0140     127.56     127.50     0          0
1230             Node_1230        Node_14111429    32.00      0.0140     127.80     127.73     0          0
1232             Node_1232        Node_14131431    32.00      0.0140     128.15     128.08     0          0
1233             Node_1233        Node_14191421    600.00     0.0140     127.79     127.49     0          0
1234             Node_1234        Node_14211423    390.00     0.0140     127.49     127.29     0          0
1235             Node_1235        Node_14231425    340.00     0.0140     127.29     127.12     0          0
1236             Node_1236        Node_14251483    330.00     0.0140     127.12     126.95     0          0
1237             Node_1237        Node_14271429    570.00     0.0140     127.50     127.21     0          0
1238             Node_1238        Node_14291431    495.00     0.0140     127.21     126.96     0          0
1251             Node_1251        Node_14481450    32.00      0.0140     131.85     131.78     0          0
1253             Node_1253        Node_14461452    32.00      0.0140     131.00     130.93     0          0
1255             Node_1255        Node_14441454    32.00      0.0140     130.90     130.83     0          0
1257             Node_1257        Node_14421456    32.00      0.0140     130.35     130.28     0          0
1258             Node_1258        Node_14401186    32.00      0.0140     129.36     129.30     0          0
1264             Node_1264        Node_1462936     60.00      0.0140     132.90     133.32     0          0
1271             ?                1071             585.00     0.0140     129.30     129.01     0          0
1273             Node_1273        Node_14521454    630.00     0.0140     129.58     129.26     0          0
1274             Node_1274        Node_14501452    700.00     0.0140     129.93     129.58     0          0
1276             ?                1076             500.00     0.0140     129.26     129.01     0          0
1279             Node_1279        Node_14561082    20.00      0.0140     129.01     129.00     0          0
1281             Node_1281        Node_14821480    2600.00    0.0300     121.22     119.92     0          0
1285             Node_1285        Node_14831482    500.00     0.0140     126.95     126.70     0          0
Sewer            Ditch            1087             1100.00    0.0140     131.70     131.15     0          0
1289             Node_1289        Node_14311183    525.00     0.0140     126.96     126.70     0          0
1292             Node_1292        Node_14901491    900.00     0.0300     123.24     122.60     0          0
1293             ?                1093             32.00      0.0240     122.60     122.40     0          0
1296             Node_1296        Node_14941495    832.00     0.0140     122.40     121.59     0          0
1297             Node_1297        Node_14951498    70.00      0.0140     121.49     121.47     0          0
1299             Node_1299        Node_14981482    530.00     0.0140     121.47     121.22     0          0
1303             Node_1303        Node_15001502    40.00      0.0240     119.82     119.80     0          0
36 inch          42 inch          1104             200.00     0.0240     119.92     119.82     0          0
1306             Node_1306        Node_15051490    200.00     0.0240     123.41     123.24     0          0
1308             Node_1308        Node_15071505    330.00     0.0300     123.77     123.41     0          0

[ORIFICES]
;;Name           From             To               Type       Offset     Qcoeff     Gated    CloseTime
;;-------------- ---------------- ---------------- ---------- ---------- ---------- -------- ----------
681              429              1042             SIDE       0          0.650      NO       0
666              Node_666         Node_11441271    SIDE       0          0.650      NO       0

[WEIRS]
;;Name           From             To               Type       CrestHt    Qcoeff     Gated    EndCon   EndCoeff   Surcharge
;;-------------- ---------------- ---------------- ---------- ---------- ---------- -------- -------- ---------- ----------
1177             Node_1177        Node_10531374    V-NOTCH    138.57     1.840      NO       0        0          YES
1178             718              1175             V-NOTCH    138.14     1.840      NO       0        0          YES
1181             734              1180             V-NOTCH    137.80     1.840      NO       0        0          YES
1187             421              1186             V-NOTCH    138.40     1.840      NO       0        0          YES
1190             425              1189             V-NOTCH    138.56     1.840      NO       0        0          YES
1202             Node_1202        Node_13691401    V-NOTCH    130.85     1.840      NO       0        0          YES
1204             Node_1204        Node_13641403    V-NOTCH    130.45     1.840      NO       0        0          YES
1206             Node_1206        Node_13601405    V-NOTCH    130.45     1.840      NO       0        0          YES
1208             Node_1208        Node_13561407    V-NOTCH    130.85     1.840      NO       0        0          YES
1210             Node_1210        Node_11571409    V-NOTCH    130.85     1.840      NO       0        0          YES
1212             Node_1212        Node_11531411    V-NOTCH    131.80     1.840      NO       0        0          YES
1214             Node_1214        Node_11521413    V-NOTCH    132.15     1.840      NO       0        0          YES
1241             Node_1241        Node_11391440    V-NOTCH    133.25     1.840      NO       0        0          YES
1243             Node_1243        Node_11891442    V-NOTCH    134.35     1.840      NO       0        0          YES
1245             Node_1245        Node_11071444    V-NOTCH    134.90     1.840      NO       0        0          YES
1247             Node_1247        Node_13441446    V-NOTCH    135.00     1.840      NO       0        0          YES
1249             Node_1249        Node_13341448    V-NOTCH    135.85     1.840      NO       0        0          YES
1263             Node_1263        Node_14611462    TRANSVERSE 136.40     1.840      NO       0        0          YES
1309             ?                1109             TRANSVERSE 130.73     1.840      NO       0        0          YES
1311             Node_1311        Node_13321398    V-NOTCH    135.94     1.840      NO       0        0          YES

[XSECTIONS]
;;Link           Shape        Geom1      Geom2      Geom3      Geom4      Barrels
;;-------------- ------------ ---------- ---------- ---------- ---------- ----------
290              TRAPEZOIDAL  1.50       3.00       0          0          1
303              CIRCULAR     2.00       0          0          0          2
304              CIRCULAR     2.50       0          0          0          2
305              CIRCULAR     2.50       0          0          0          2
308              TRAPEZOIDAL  1.93       7.00       0          0          1
314              TRAPEZOIDAL  2.00       5.00       0          0          1
321              CIRCULAR     2.00       0          0          0          3
323              TRAPEZOIDAL  1.51       5.00       0          0          1
348              TRAPEZOIDAL  2.00       5.00       0          0          1
349              TRAPEZOIDAL  0.70       2.00       0          0          1
350              TRAPEZOIDAL  3.00       5.00       0          0          1
422              IRREGULAR    0          0          0          0          1
426              IRREGULAR    0          0          0          0          1
428              IRREGULAR    0          0          0          0          1
430              IRREGULAR    0          0          0          0          1
432              IRREGULAR    0          0          0          0          1
581              RECT_CLOSED  3.00       7.00       0          0          2
583              RECT_CLOSED  3.00       7.00       0          0          2
737              IRREGULAR    0          0          0          0          1
738              IRREGULAR    0          0          0          0          1
739              RECT_CLOSED  3.00       7.00       0          0          2
859              IRREGULAR    0          0          0          0          1
863              IRREGULAR    0          0          0          0          1
868              IRREGULAR    0          0          0          0          1
869              RECT_CLOSED  3.00       7.00       0          0          2
860              IRREGULAR    0          0          0          0          1
861              CIRCULAR     2.50       0          0          0          3
875              CIRCULAR     3.00       0          0          0          2
876              CIRCULAR     2.00       0          0          0          2
523              IRREGULAR    7.47       8.00       0          0          1
553              IRREGULAR    7.31       0          0          0          1
806              IRREGULAR    7.77       0          0          0          1
559              IRREGULAR    8.24       0          0          0          1
560              IRREGULAR    8.70       0          0          0          1
557              CIRCULAR     5.00       0          0          0          2
499              IRREGULAR    0          0          0          0          1
501              IRREGULAR    0          0          0          0          1
648              RECT_CLOSED  3.00       5.00       0          0          1