;; SWMM5 .inp converted from XPSWMM .xp file
;; Generated by XPSWMM Card Reader
;; Source format: XP_CARD | Original title: (none)

[TITLE]
;;Project Title/Notes
Converted from XPSWMM .xp file

[OPTIONS]
FLOW_UNITS           CFS
INFILTRATION         HORTON
FLOW_ROUTING         DYNWAVE
LINK_OFFSETS         DEPTH
MIN_SLOPE            0.0
ALLOW_PONDING        NO
SKIP_STEADY_STATE    NO
INERTIAL_DAMPING     PARTIAL
NORMAL_FLOW_LIMITED  BOTH

[JUNCTIONS]
;;Name           Elev       MaxDepth   InitDepth  SurDepth   Aponded
;;-------------- ---------- ---------- ---------- ---------- ----------
1.00             0          0          0          0          0
1.01             0          0          0          0          0
1.02             0          0          0          0          0
1.03J            0          0          0          0          0
1.04J            0          0          0          0          0
1.05             0          0          0          0          0
1.06             0          0          0          0          0
1.07J            0          0          0          0          0
1.08             0          0          0          0          0
1.09E            0          0          0          0          0
1.10             0          0          0          0          0
1.11             0          0          0          0          0
1.12             0          0          0          0          0
12.00            0          0          0          0          0
19.00            0          0          0          0          0
89.00            0          0          0          0          0
88.00            0          0          0          0          0
94.00            0          0          0          0          0
87.00            0          0          0          0          0
95.02            0          0          0          0          0
95.01J           0          0          0          0          0
95.00            0          0          0          0          0
96.00            0          0          0          0          0
99.00            0          0          0          0          0
18.01            0          0          0          0          0
18.00            0          0          0          0          0
98.01J           0          0          0          0          0
98.00            0          0          0          0          0
97.00            0          0          0          0          0
55.00J           0          0          0          0          0
8.15             0          0          0          0          0
8.14J            0          0          0          0          0
8.13J            0          0          0          0          0
10.06            0          0          0          0          0
9.09             0          0          0          0          0
9.08             0          0          0          0          0
9.07             0          0          0          0          0
9.06J            0          0          0          0          0
94.00            0          0          0          0          0
9.05             0          0          0          0          0
93.00            0          0          0          0          0
9.04J            0          0          0          0          0
9.03             0          0          0          0          0
92.01            0          0          0          0          0
92.00            0          0          0          0          0
9.02             0          0          0          0          0
9.01             0          0          0          0          0
91.00            0          0          0          0          0
86.00            0          0          0          0          0
10.05            0          0          0          0          0
10.04            0          0          0          0          0
10.02            0          0          0          0          0
10.01J           0          0          0          0          0
10.00            0          0          0          0          0
11.00            0          0          0          0          0
8.12J            0          0          0          0          0
8.11             0          0          0          0          0
8.10J            0          0          0          0          0
8.09             0          0          0          0          0
84.00            0          0          0          0          0
85.00            0          0          0          0          0
83.00            0          0          0          0          0
82.03            0          0          0          0          0
82.02            0          0          0          0          0
82.01            0          0          0          0          0
8.07             0          0          0          0          0
8.06E            0          0          0          0          0
8.05             0          0          0          0          0
8.04             0          0          0          0          0
8.08             0          0          0          0          0
8.03             0          0          0          0          0
8.02J            0          0          0          0          0
8.01             0          0          0          0          0
8.00             0          0          0          0          0
80.02            0          0          0          0          0
80.01J           0          0          0          0          0
80.00            0          0          0          0          0
81.00            0          0          0          0          0
1.14J            0          0          0          0          0
1.15J            0          0          0          0          0
1.16             0          0          0          0          0
1.17E            0          0          0          0          0
1.18             0          0          0          0          0
1.19             0          0          0          0          0
1.20J            0          0          0          0          0
1.21             0          0          0          0          0
13.05            0          0          0          0          0
13.04J           0          0          0          0          0
14.00            0          0          0          0          0
13.03            0          0          0          0          0
13.02J           0          0          0          0          0
15.00            0          0          0          0          0
13.01            0          0          0          0          0
13.00            0          0          0          0          0
1.13E            0          0          0          0          0
16.02J           0          0          0          0          0
16.01            0          0          0          0          0
16.00            0          0          0          0          0
30.00            0          0          0          0          0
64.01            0          0          0          0          0
64.00            0          0          0          0          0
1.22             0          0          0          0          0
1.23             0          0          0          0          0
1.24E            0          0          0          0          0
1.25             0          0          0          0          0
1.26             0          0          0          0          0
1.27E            0          0          0          0          0
5.05             0          0          0          0          0
5.04             0          0          0          0          0
50.00            0          0          0          0          0
5.03             0          0          0          0          0
5.02             0          0          0          0          0
5.01             0          0          0          0          0
5.00             0          0          0          0          0
17.00            0          0          0          0          0
4.07J            0          0          0          0          0
4.06             0          0          0          0          0
4.05             0          0          0          0          0
4.04             0          0          0          0          0
4.03             0          0          0          0          0
4.02             0          0          0          0          0
4.01             0          0          0          0          0
4.00             0          0          0          0          0
40.01            0          0          0          0          0
40.00            0          0          0          0          0
6.14             0          0          0          0          0
6.13             0          0          0          0          0
6.12             0          0          0          0          0
6.11             0          0          0          0          0
6.10J            0          0          0          0          0
63.00            0          0          0          0          0
62.00            0          0          0          0          0
6.09             0          0          0          0          0
6.08             0          0          0          0          0
65.09            0          0          0          0          0
65.08            0          0          0          0          0
65.07J           0          0          0          0          0
65.06            0          0          0          0          0
65.05E           0          0          0          0          0
65.04            0          0          0          0          0
65.03J           0          0          0          0          0
65.02            0          0          0          0          0
65.01            0          0          0          0          0
65.00            0          0          0          0          0
68.00            0          0          0          0          0
66.01            0          0          0          0          0
66.00            0          0          0          0          0
67.02            0          0          0          0          0
67.01            0          0          0          0          0
67.00            0          0          0          0          0
6.07             0          0          0          0          0
61.00            0          0          0          0          0
6.06             0          0          0          0          0
6.05             0          0          0          0          0
6.04             0          0          0          0          0
6.03E            0          0          0          0          0
6.02             0          0          0          0          0
6.01             0          0          0          0          0
6.00             0          0          0          0          0
60.01            0          0          0          0          0
60.00            0          0          0          0          0
1.28J            0          0          0          0          0
1.29J            0          0          0          0          0
1.30             0          0          0          0          0
1.31J            0          0          0          0          0
1.32             0          0          0          0          0
1.33E            0          0          0          0          0
1.34J            0          0          0          0          0
1.35             0          0          0          0          0
1.36J            0          0          0          0          0
2.22             0          0          0          0          0
41.00            0          0          0          0          0
41.01            0          0          0          0          0
42.00            0          0          0          0          0
43.00            0          0          0          0          0
45.05            0          0          0          0          0
45.04J           0          0          0          0          0
47.00            0          0          0          0          0
45.03J           0          0          0          0          0
46.00            0          0          0          0          0
45.02            0          0          0          0          0
45.01            0          0          0          0          0
45.00E           0          0          0          0          0
48.00            0          0          0          0          0
2.21J            0          0          0          0          0
33.00            0          0          0          0          0
2.20             0          0          0          0          0
82.00            0          0          0          0          0
69.00            0          0          0          0          0
3.07             0          0          0          0          0
3.06E            0          0          0          0          0
3.05             0          0          0          0          0
3.04             0          0          0          0          0
32.00            0          0          0          0          0
3.03J            0          0          0          0          0
31.00            0          0          0          0          0
3.02             0          0          0          0          0
3.01             0          0          0          0          0
3.00             0          0          0          0          0
2.19             0          0          0          0          0
2.18             0          0          0          0          0
2.17             0          0          0          0          0
2.15E            0          0          0          0          0
2.14             0          0          0          0          0
2.13J            0          0          0          0          0
34.02            0          0          0          0          0
34.01J           0          0          0          0          0
34.00            0          0          0          0          0
2.12             0          0          0          0          0
2.11E            0          0          0          0          0
36.00            0          0          0          0          0
2.09J            0          0          0          0          0
37.00            0          0          0          0          0
2.08             0          0          0          0          0
2.07J            0          0          0          0          0
2.06             0          0          0          0          0
25.07            0          0          0          0          0
2.05J            0          0          0          0          0
2.04             0          0          0          0          0
2.03J            0          0          0          0          0
2.02             0          0          0          0          0
2.01J            0          0          0          0          0
2.00             0          0          0          0          0
20.00            0          0          0          0          0
21.02            0          0          0          0          0
23.02            0          0          0          0          0
23.01            0          0          0          0          0
23.00            0          0          0          0          0
21.01J           0          0          0          0          0
22.00            0          0          0          0          0
21.00            0          0          0          0          0
35.00            0          0          0          0          0
25.06J           0          0          0          0          0
28.00            0          0          0          0          0
25.05J           0          0          0          0          0
27.00            0          0          0          0          0
25.04            0          0          0          0          0
25.03J           0          0          0          0          0
24.01            0          0          0          0          0
24.00            0          0          0          0          0
25.02            0          0          0          0          0
25.01J           0          0          0          0          0
26.00            0          0          0          0          0
25.00            0          0          0          0          0
10.03E           0          0          0          0          0
2.10             0          0          0          0          0
2.16             0          0          0          0          0
1.00L            0          0          0          0          0
12.00L           0          0          0          0          0
1.01L            0          0          0          0          0
19.00L           0          0          0          0          0
1.02L            0          0          0          0          0
89.00L           0          0          0          0          0
88.00L           0          0          0          0          0
94.00L           0          0          0          0          0
87.00L           0          0          0          0          0
1.05l            0          0          0          0          0
95.00l           0          0          0          0          0
96.00l           0          0          0          0          0
95.02l           0          0          0          0          0
1.06l            0          0          0          0          0
99.00l           0          0          0          0          0
18.00l           0          0          0          0          0
18.01l           0          0          0          0          0
1.08l            0          0          0          0          0
98.00l           0          0          0          0          0
97.00l           0          0          0          0          0
1.10l            0          0          0          0          0
1.11l            0          0          0          0          0
9.01l            0          0          0          0          0
91.00l           0          0          0          0          0
9.02l            0          0          0          0          0
9.03l            0          0          0          0          0
92.00l           0          0          0          0          0
92.01l           0          0          0          0          0
9.05l            0          0          0          0          0
93.00l           0          0          0          0          0
94.00l           0          0          0          0          0
9.07l            0          0          0          0          0
9.08l            0          0          0          0          0
9.09l            0          0          0          0          0
8.00l            0          0          0          0          0
8.01l            0          0          0          0          0
80.00l           0          0          0          0          0
81.00l           0          0          0          0          0
80.02l           0          0          0          0          0
8.03l            0          0          0          0          0
8.04l            0          0          0          0          0
8.05l            0          0          0          0          0
8.07l            0          0          0          0          0
8.08l            0          0          0          0          0
82.00l           0          0          0          0          0
82.01l           0          0          0          0          0
82.02l           0          0          0          0          0
82.03l           0          0          0          0          0
8.09l            0          0          0          0          0
83.00l           0          0          0          0          0
8.11l            0          0          0          0          0
85.00l           0          0          0          0          0
84.00l           0          0          0          0          0
10.00l           0          0          0          0          0
11.00l           0          0          0          0          0
10.02l           0          0          0          0          0
10.04l           0          0          0          0          0
10.05l           0          0          0          0          0
10.06l           0          0          0          0          0
8.15l            0          0          0          0          0
86.00l           0          0          0          0          0
1.12l            0          0          0          0          0
67.00l           0          0          0          0          0
67.01l           0          0          0          0          0
68.00l           0          0          0          0          0
66.00l           0          0          0          0          0
66.01l           0          0          0          0          0
65.00l           0          0          0          0          0
65.01l           0          0          0          0          0
65.02l           0          0          0          0          0
67.02l           0          0          0          0          0
65.04l           0          0          0          0          0
65.06l           0          0          0          0          0
65.08l           0          0          0          0          0
69.00l           0          0          0          0          0
65.09l           0          0          0          0          0
6.14l            0          0          0          0          0
6.00l            0          0          0          0          0
6.01l            0          0          0          0          0
60.00l           0          0          0          0          0
60.01l           0          0          0          0          0
6.02l            0          0          0          0          0
6.04l            0          0          0          0          0
6.05l            0          0          0          0          0
6.06l            0          0          0          0          0
61.00l           0          0          0          0          0
6.07l            0          0          0          0          0
6.08l            0          0          0          0          0
6.09l            0          0          0          0          0
62.00l           0          0          0          0          0
63.00l           0          0          0          0          0
6.11l            0          0          0          0          0
6.12l            0          0          0          0          0
6.13l            0          0          0          0          0
64.01l           0          0          0          0          0
64.00l           0          0          0          0          0
30.00l           0          0          0          0          0
1.16l            0          0          0          0          0
16.00l           0          0          0          0          0
16.01l           0          0          0          0          0
17.00l           0          0          0          0          0
1.18l            0          0          0          0          0
1.19l            0          0          0          0          0
13.00l           0          0          0          0          0
13.01l           0          0          0          0          0
15.00l           0          0          0          0          0
13.03l           0          0          0          0          0
14.00l           0          0          0          0          0
13.05l           0          0          0          0          0
1.21l            0          0          0          0          0
1.22l            0          0          0          0          0
5.00l            0          0          0          0          0
5.01l            0          0          0          0          0
5.02l            0          0          0          0          0
5.03l            0          0          0          0          0
50.00l           0          0          0          0          0
5.04l            0          0          0          0          0
5.05l            0          0          0          0          0
1.23l            0          0          0          0          0
4.00l            0          0          0          0          0
4.01l            0          0          0          0          0
4.02l            0          0          0          0          0
4.03l            0          0          0          0          0
4.04l            0          0          0          0          0
4.05l            0          0          0          0          0
4.06l            0          0          0          0          0
40.00l           0          0          0          0          0
40.01l           0          0          0          0          0
1.25l            0          0          0          0          0
1.26l            0          0          0          0          0
26.00l           0          0          0          0          0
25.02l           0          0          0          0          0
24.01l           0          0          0          0          0
25.04l           0          0          0          0          0
27.00l           0          0          0          0          0
28.00l           0          0          0          0          0
25.07l           0          0          0          0          0
2.08l            0          0          0          0          0
2.06l            0          0          0          0          0
23.00l           0          0          0          0          0
21.00l           0          0          0          0          0
23.01l           0          0          0          0          0
22.00l           0          0          0          0          0
21.02l           0          0          0          0          0
2.04l            0          0          0          0          0
2.00l            0          0          0          0          0
21.00l           0          0          0          0          0
2.02l            0          0          0          0          0
23.02l           0          0          0          0          0
36.00l           0          0          0          0          0
37.00l           0          0          0          0          0
25.00l           0          0          0          0          0
24.00l           0          0          0          0          0

[CONDUITS]
;;Name           From             To               Length     Roughness  InOffset   OutOffset  InitFlow   MaxFlow
;;-------------- ---------------- ---------------- ---------- ---------- ---------- ---------- ---------- ----------
0                1.00             1.01             0          0          0          0          0          0
0                1.01             1.02             0          0          0          0          0          0
0                1.02             1.03J            0          0          0          0          0          0
0                1.03J            1.04J            0          0          0          0          0          0
0                1.04J            1.05             0          0          0          0          0          0
0                1.05             1.06             0          0          0          0          0          0
0                1.06             1.07J            0          0          0          0          0          0
0                1.07J            1.08             0          0          0          0          0          0
0                1.08             1.09E            0          0          0          0          0          0
0                1.09E            1.10             0          0          0          0          0          0
0                1.10             1.11             0          0          0          0          0          0
0                1.11             1.12             0          0          0          0          0          0
0                12.00            1.01             0          0          0          0          0          0
0                19.00            1.02             0          0          0          0          0          0
0                89.00            1.03J            0          0          0          0          0          0
0                88.00            1.04J            0          0          0          0          0          0
0                94.00            1.05             0          0          0          0          0          0
0                87.00            1.05             0          0          0          0          0          0
0                95.00            95.01J           0          0          0          0          0          0
0                95.01J           95.02            0          0          0          0          0          0
0                95.02            1.06             0          0          0          0          0          0
0                96.00            95.01J           0          0          0          0          0          0
0                99.00            1.07J            0          0          0          0          0          0
0                18.01            1.08             0          0          0          0          0          0
0                18.00            18.01            0          0          0          0          0          0
0                98.00            98.01J           0          0          0          0          0          0
0                98.01J           1.10             0          0          0          0          0          0
0                97.00            98.01J           0          0          0          0          0          0
0                55.00J           1.12             0          0          0          0          0          0
0                1.11             55.00J           0          0          0          0          0          0
0                8.15             1.12             0          0          0          0          0          0
0                10.06            8.14J            0          0          0          0          0          0
0                8.14J            8.15             0          0          0          0          0          0
0                8.15             55.00J           0          0          0          0          0          0
0                8.13J            8.14J            0          0          0          0          0          0
0                9.08             9.09             0          0          0          0          0          0