;; SWMM5 .inp converted from XPSWMM .xp file
;; Generated by XPSWMM Card Reader
;; Source format: XP_CARD | Original title: Sanitary Model

[TITLE]
;;Project Title/Notes
Sanitary Model

[OPTIONS]
FLOW_UNITS           CFS
INFILTRATION         HORTON
FLOW_ROUTING         DYNWAVE
LINK_OFFSETS         DEPTH
MIN_SLOPE            0.0
ALLOW_PONDING        NO
SKIP_STEADY_STATE    NO
ROUTING_STEP         00:00:60
VARIABLE_STEP        0.75
INERTIAL_DAMPING     PARTIAL
NORMAL_FLOW_LIMITED  BOTH

[JUNCTIONS]
;;Name           Elev       MaxDepth   InitDepth  SurDepth   Aponded
;;-------------- ---------- ---------- ---------- ---------- ----------
0                1299.17    0          0          0          0
0                1296.16    0          0          0          0
0                1308.55    0          0          0          0
0                1327.52    0          0          0          0
0                1324.95    0          0          0          0
0                1321.95    0          0          0          0
0                1321.86    0          0          0          0
0                1300.86    0          0          0          0
0                1305.16    0          0          0          0
0                1291.45    0          0          0          0
0                1306.61    0          0          0          0
0                1293.66    0          0          0          0
0                1287.70    0          0          0          0
0                1299.61    0          0          0          0
0                1305.15    0          0          0          0
0                1303.71    0          0          0          0
0                1295.00    0          0          0          0
0                1284.41    0          0          0          0
0                1285.20    0          0          0          0
0                1282.63    0          0          0          0
0                1285.79    0          0          0          0
0                1295.66    0          0          0          0
0                1279.25    0          0          0          0
0                1309.40    0          0          0          0
0                1301.39    0          0          0          0
0                1316.64    0          0          0          0
0                1320.10    0          0          0          0
0                1317.46    0          0          0          0
0                1297.23    0          0          0          0
0                1289.13    0          0          0          0
0                1291.32    0          0          0          0
0                1309.65    0          0          0          0
0                1337.34    0          0          0          0
0                1329.26    0          0          0          0
0                1329.52    0          0          0          0
0                1298.93    0          0          0          0
0                1292.37    0          0          0          0
0                1290.45    0          0          0          0
0                1296.77    0          0          0          0
0                1311.17    0          0          0          0
0                1294.99    0          0          0          0
0                1296.92    0          0          0          0
0                1284.15    0          0          0          0
0                1313.95    0          0          0          0
0                1306.81    0          0          0          0
0                1308.93    0          0          0          0
0                1302.62    0          0          0          0
0                1301.57    0          0          0          0
0                1314.26    0          0          0          0
0                1294.81    0          0          0          0

[STORAGE]
;;Name           Elev       MaxDepth   InitDepth  Shape      Curve/Params
;;-------------- ---------- ---------- ---------- ---------- ----------
0                1289.06    0          0          FUNCTIONAL 100.00 0          0

[CONDUITS]
;;Name           From             To               Length     Roughness  InOffset   OutOffset  InitFlow   MaxFlow
;;-------------- ---------------- ---------------- ---------- ---------- ---------- ---------- ---------- ----------
203              0                0                246.18     0          1300.55    1291.17    0          0
201              0                0                214.13     0          1291.17    1288.16    0          0
202              0                0                205.94     0          1288.16    1281.06    0          0
203              0                0                226.97     0          1300.55    1297.16    0          0
207              0                0                187.91     0          1313.86    1312.10    0          0
204              0                0                169.66     0          1319.52    1316.95    0          0
205              0                0                154.55     0          1316.95    1313.95    0          0
206              0                0                103.34     0          1313.95    1313.86    0          0
207              0                0                294.11     0          1313.86    1298.61    0          0
209              0                0                261.16     0          1292.86    1283.45    0          0
210              0                0                133.88     0          1297.16    1292.86    0          0
211              0                0                287.49     0          1283.45    1281.06    0          0
212              0                0                101.02     0          1298.61    1297.15    0          0
213              0                0                87.66      0          1285.66    1279.70    0          0
214              0                0                185.28     0          1279.70    1278.89    0          0
215              0                0                232.73     0          1291.61    1285.66    0          0
217              0                0                249.47     0          1295.71    1287.00    0          0
218              0                0                256.23     0          1287.00    1278.89    0          0
219              0                0                77.05      0          1278.89    1278.56    0          0
212              0                0                147.08     0          1298.61    1295.71    0          0
245              0                0                242.23     0          1305.95    1303.17    0          0
220              0                0                176.32     0          1278.56    1277.79    0          0
229              0                0                250.85     0          1309.46    1298.81    0          0
221              0                0                424.41     0          1274.63    1271.25    0          0
222              0                0                419.75     0          1277.79    1274.63    0          0
223              0                0                235.31     0          1287.66    1277.79    0          0
225              0                0                318.72     0          1301.40    1287.66    0          0
225              0                0                162.19     0          1301.40    1293.39    0          0
247              0                0                451.54     0          1300.93    1287.91    0          0
227              0                0                221.91     0          1308.64    1301.65    0          0
228              0                0                197.94     0          1312.10    1308.64    0          0
229              0                0                387.49     0          1309.46    1293.39    0          0
240              0                0                390.07     0          1288.77    1283.32    0          0
230              0                0                390.56     0          1287.91    1283.32    0          0
226              0                0                242.51     0          1293.39    1287.91    0          0
231              0                0                275.52     0          1281.13    1276.15    0          0
232              0                0                222.44     0          1283.32    1282.45    0          0
240              0                0                566.96     0          1288.77    1274.63    0          0
233              0                0                303.23     0          1301.65    1297.16    0          0
234              0                0                318.40     0          1329.34    1321.52    0          0
235              0                0                434.25     0          1321.26    1309.46    0          0
236              0                0                379.71     0          1321.52    1321.26    0          0
243              0                0                467.24     0          1288.92    1283.32    0          0
237              0                0                346.08     0          1290.93    1286.99    0          0
244              0                0                314.17     0          1276.15    1271.25    0          0
241              0                0                386.57     0          1303.17    1300.93    0          0
243              0                0                508.00     0          1288.92    1286.99    0          0
216              0                0                261.85     0          1297.15    1291.61    0          0
245              0                0                193.14     0          1305.95    1298.81    0          0
234              0                0                405.25     0          1329.34    1303.17    0          0
246              0                0                395.06     0          1298.81    1287.91    0          0
247              0                0                405.48     0          1300.93    1288.92    0          0
235              0                0                350.11     0          1321.26    1306.26    0          0
248              0                0                384.00     0          1294.62    1277.79    0          0
249              0                0                364.40     0          1300.07    1294.62    0          0
250              0                0                413.15     0.0140     1306.26    1300.07    0          0
204              0                0                351.46     0          1319.52    1306.26    0          0
204              0                0                417.64     0          1319.52    1294.62    0          0
251              0                0                215.25     0          1286.81    1285.66    0          0
242              0                0                320.72     0          1286.99    1284.37    0          0
238              0                0                233.07     0          1284.37    1282.45    0          0
239              0                0                383.34     0          1282.45    1281.13    0          0

[PUMPS]
;;Name           From             To               PumpCurve  Status   Startup    Shutoff
;;-------------- ---------------- ---------------- ---------- -------- ---------- ----------
208              0                0                PC_208     ON       1283.00    1282.00   

[CURVES]
;;Name           Type       X-Value    Y-Value
;;-------------- ---------- ---------- ----------
PC_208           Pump3      0          0
;

[XSECTIONS]
;;Link           Shape        Geom1      Geom2      Geom3      Geom4      Barrels
;;-------------- ------------ ---------- ---------- ---------- ---------- ----------
203              CIRCULAR     0.67       0          0          0          1
201              CIRCULAR     0.67       0          0          0          1
202              CIRCULAR     0.67       0          0          0          1
203              CIRCULAR     0.67       0          0          0          1
207              CIRCULAR     0.67       0          0          0          1
204              CIRCULAR     0.67       0          0          0          1
205              CIRCULAR     0.67       0          0          0          1
206              CIRCULAR     0.67       0          0          0          1
207              CIRCULAR     0.67       0          0          0          1
209              CIRCULAR     0.67       0          0          0          1
210              CIRCULAR     0.67       0          0          0          1
211              CIRCULAR     0.83       0          0          0          1
212              CIRCULAR     0.67       0          0          0          1
213              CIRCULAR     0.67       0          0          0          1
214              CIRCULAR     1.25       0          0          0          1
215              CIRCULAR     0.67       0          0          0          1
217              CIRCULAR     0.67       0          0          0          1
218              CIRCULAR     0.67       0          0          0          1
219              CIRCULAR     1.25       0          0          0          1
212              CIRCULAR     0.67       0          0          0          1
245              CIRCULAR     0.67       0          0          0          1
220              CIRCULAR     1.25       0          0          0          1
229              CIRCULAR     0.67       0          0          0          1
221              CIRCULAR     1.25       0          0          0          1
222              CIRCULAR     1.25       0          0          0          1
223              CIRCULAR     0.67       0          0          0          1
225              CIRCULAR     0.67       0          0          0          1
225              CIRCULAR     0.67       0          0          0          1
247              CIRCULAR     0.67       0          0          0          1
227              CIRCULAR     0.67       0          0          0          1
228              CIRCULAR     0.67       0          0          0          1
229              CIRCULAR     0.67       0          0          0          1
240              CIRCULAR     0.67       0          0          0          1
230              CIRCULAR     0.67       0          0          0          1
226              CIRCULAR     0.67       0          0          0          1
231              CIRCULAR     0.83       0          0          0          1
232              CIRCULAR     1.00       0          0          0          1
240              CIRCULAR     0.67       0          0          0          1
233              CIRCULAR     0.67       0          0          0          1
234              CIRCULAR     0.67       0          0          0          1
235              CIRCULAR     0.67       0          0          0          1
236              CIRCULAR     0.67       0          0          0          1
243              CIRCULAR     0.67       0          0          0          1
237              CIRCULAR     0.67       0          0          0          1
244              CIRCULAR     0.83       0          0          0          1
241              CIRCULAR     0.67       0          0          0          1
243              CIRCULAR     0.67       0          0          0          1
216              CIRCULAR     0.67       0          0          0          1
245              CIRCULAR     0.67       0          0          0          1
234              CIRCULAR     0.67       0          0          0          1
246              CIRCULAR     0.67       0          0          0          1
247              CIRCULAR     0.67       0          0          0          1
235              CIRCULAR     0.67       0          0          0          1
248              CIRCULAR     0.67       0          0          0          1
249              CIRCULAR     0.67       0          0          0          1
250              CIRCULAR     0.67       0          0          0          1
204              CIRCULAR     0.67       0          0          0          1
204              CIRCULAR     0.67       0          0          0          1
251              CIRCULAR     1.00       0          0          0          1
242              CIRCULAR     0.67       0          0          0          1
238              CIRCULAR     0.67       0          0          0          1
239              CIRCULAR     1.25       0          0          0          1

[LOSSES]
;;Link           Inlet      Outlet     Average    Flap Gate
;;-------------- ---------- ---------- ---------- ----------
203              0          0          0          NO
201              0          0          0          NO
202              0          0          0          NO
203              0          0          0          NO
207              0          0          0          NO
204              0          0          0          NO
205              0          0          0          NO
206              0          0          0          NO
207              0          0          0          NO
209              0          0          0          NO
210              0          0          0          NO
211              0          0          0          NO
212              0          0          0          NO
213              0          0          0          NO
214              0          0          0          NO
215              0          0          0          NO
217              0          0          0          NO
218              0          0          0          NO
219              0          0          0          NO
212              0          0          0          NO
245              0          0          0          NO
220              0          0          0          NO
229              0          0          0          NO
221              0          0          0          NO
222              0          0          0          NO
223              0          0          0          NO
225              0          0          0          NO
225              0          0          0          NO
247              0          0          0          NO
227              0          0          0          NO
228              0          0          0          NO
229              0          0          0          NO
240              0          0          0          NO
230              0          0          0          NO
226              0          0          0          NO
231              0          0          0          NO
232              0          0          0          NO
240              0          0          0          NO
233              0          0          0          NO
234              0          0          0          NO
235              0          0          0          NO
236              0          0          0          NO
243              0          0          0          NO
237              0          0          0          NO
244              0          0          0          NO
241              0          0          0          NO
243              0          0          0          NO
216              0          0          0          NO
245              0          0          0          NO
234              0          0          0          NO
246              0          0          0          NO
247              0          0          0          NO
235              0          0          0          NO
248              0          0          0          NO
249              0          0          0          NO
250              0          0          0          NO
204              0          0          0          NO
204              0          0          0          NO
251              0          0          0          NO
242              0          0          0          NO
238              0          0          0          NO
239              0          0          0          NO

[INFLOWS]
;;Node           Constituent  Time Series      Type     Mfactor  Sfactor  Baseline Pattern
;;-------------- ------------ ---------------- -------- -------- -------- -------- --------
0                FLOW         ""               FLOW     1.0      1.0      0.05
0                FLOW         ""               FLOW     1.0      1.0      0.05
0                FLOW         ""               FLOW     1.0      1.0      0.05
0                FLOW         ""               FLOW     1.0      1.0      0.05
0                FLOW         ""               FLOW     1.0      1.0      0.05
0                FLOW         ""               FLOW     1.0      1.0      0.05
0                FLOW         ""               FLOW     1.0      1.0      0.05
0                FLOW         ""               FLOW     1.0      1.0      0.05
0                FLOW         ""               FLOW     1.0      1.0      0.05
0                FLOW         ""               FLOW     1.0      1.0      0.05
0                FLOW         ""               FLOW     1.0      1.0      0.05
0                FLOW         ""               FLOW     1.0      1.0      0.05
0                FLOW         ""               FLOW     1.0      1.0      0.05
0                FLOW         ""               FLOW     1.0      1.0      0.05
0                FLOW         ""               FLOW     1.0      1.0      0.05
0                FLOW         ""               FLOW     1.0      1.0      0.05
0                FLOW         ""               FLOW     1.0      1.0      0.05
0                FLOW         ""               FLOW     1.0      1.0      0.05
0                FLOW         ""               FLOW     1.0      1.0      0.05
0                FLOW         ""               FLOW     1.0      1.0      0.05
0                FLOW         ""               FLOW     1.0      1.0      0.05
0                FLOW         ""               FLOW     1.0      1.0      0.05
0                FLOW         ""               FLOW     1.0      1.0      0.05
0                FLOW         ""               FLOW     1.0      1.0      0.05
0                FLOW         ""               FLOW     1.0      1.0      0.05
0                FLOW         ""               FLOW     1.0      1.0      0.05
0                FLOW         ""               FLOW     1.0      1.0      0.05
0                FLOW         ""               FLOW     1.0      1.0      0.05
0                FLOW         ""               FLOW     1.0      1.0      0.05
0                FLOW         ""               FLOW     1.0      1.0      0.05
0                FLOW         ""               FLOW     1.0      1.0      0.05
0                FLOW         ""               FLOW     1.0      1.0      0.05
0                FLOW         ""               FLOW     1.0      1.0      0.05
0                FLOW         ""               FLOW     1.0      1.0      0.05
0                FLOW         ""               FLOW     1.0      1.0      0.05
0                FLOW         ""               FLOW     1.0      1.0      0.05
0                FLOW         ""               FLOW     1.0      1.0      0.05
0                FLOW         ""               FLOW     1.0      1.0      0.05
0                FLOW         ""               FLOW     1.0      1.0      0.05
0                FLOW         ""               FLOW     1.0      1.0      0.05
0                FLOW         ""               FLOW     1.0      1.0      0.05
0                FLOW         ""               FLOW     1.0      1.0      0.05
0                FLOW         ""               FLOW     1.0      1.0      0.05
0                FLOW         ""               FLOW     1.0      1.0      0.05
0                FLOW         ""               FLOW     1.0      1.0      0.05
0                FLOW         ""               FLOW     1.0      1.0      0.05
0                FLOW         ""               FLOW     1.0      1.0      0.05
0                FLOW         ""               FLOW     1.0      1.0      0.05
0                FLOW         ""               FLOW     1.0      1.0      0.05
0                FLOW         ""               FLOW     1.0      1.0      0.05
0                FLOW         ""               FLOW     1.0      1.0      0.05

[COORDINATES]
;;Node           X-Coord            Y-Coord
;;-------------- ------------------ ------------------
0                -3775.34           2703.91           
0                -3780.36           2917.98           
0                -3778.26           2457.74           
0                -2973.12           2146.85           
0                -3142.72           2142.44           
0                -3297.26           2144.20           
0                -3400.55           2147.50           
0                -3977.52           2977.49           
0                -4137.51           2452.75           
0                -4004.40           2438.36           
0                -4065.26           2703.72           
0                -3405.90           2441.56           
0                -3519.81           2949.61           
0                -3432.72           2959.53           
0                -3506.82           2717.24           
0                -3505.97           2455.39           
0                -3258.98           2448.59           
0                -3256.89           2698.04           
0                -3247.52           2954.10           
0                -3170.47           2954.41           
0                -2994.34           3367.92           
0                -2994.26           2948.17           
0                -2759.07           2955.49           
0                -2978.99           3792.06           
0                -2440.38           2951.87           
0                -2278.19           2950.95           
0                -3786.19           2135.92           
0                -3588.43           2144.22           
0                -2270.96           2563.53           
0                -2035.69           2953.21           
0                -2435.07           3605.60           
0                -2037.69           3343.76           
0                -4008.10           2135.16           
0                -1574.52           2153.01           
0                -2271.82           2129.28           
0                -1892.91           2154.05           
0                -1253.82           3879.22           
0                -1869.67           3693.79           
0                -2055.65           3565.48           
0                -2427.43           3359.60           
0                -1584.79           2558.13           
0                -1599.19           3857.14           
0                -1570.49           3349.95           
0                -2709.18           3633.42           
0                -1827.02           2558.79           
0                -2020.16           2558.45           
0                -1584.23           2944.70           
0                -2980.53           2564.42           
0                -2616.56           2546.83           
0                -2621.90           2133.71           
0                -3733.69           2973.89           

[MAP]
DIMENSIONS -4137.51 2129.28 -1253.82 3879.22
Units      None

[REPORT]
INPUT            YES
SUBCATCHMENTS    ALL
NODES            ALL
LINKS            ALL



