;; SWMM5 .inp converted from XPSWMM .xp file
;; Generated by XPSWMM Card Reader
;; Source format: XP_CARD | Original title: Meadowland Mills Hydrologic Analyses

[TITLE]
;;Project Title/Notes
Meadowland Mills Hydrologic Analyses

[OPTIONS]
FLOW_UNITS           CFS
INFILTRATION         HORTON
FLOW_ROUTING         DYNWAVE
LINK_OFFSETS         DEPTH
MIN_SLOPE            0.0
ALLOW_PONDING        NO
SKIP_STEADY_STATE    NO
ROUTING_STEP         00:00:02
VARIABLE_STEP        0.75
INERTIAL_DAMPING     PARTIAL
NORMAL_FLOW_LIMITED  BOTH
MAX_TRIALS           50
HEAD_TOLERANCE       0.0033

[JUNCTIONS]
;;Name           Elev       MaxDepth   InitDepth  SurDepth   Aponded
;;-------------- ---------- ---------- ---------- ---------- ----------
MnC/             9.00       0          6.00       0          0
Moon-D           5.00       0          3.00       0          0
Moon             11.00      0          0          0          0
MIT-A            9.00       0          6.00       0          0
MIT-C            9.00       0          3.00       0          0
JUN4             9.00       0          3.00       0          0
MIT-B            9.00       0          4.00       0          0
JUN5             9.00       0          3.00       0          0
JUN7             9.00       0          3.00       0          0
JUN8             9.00       0          3.00       0          0
JUN9             9.00       0          3.00       0          0
JUN10            9.00       0          3.00       0          0
JUN11            9.00       0          3.00       0          0
JUN12            9.00       0          3.00       0          0
JUN13            9.00       0          3.00       0          0
JUN14            9.00       0          3.00       0          0
JUN21            9.00       0          3.00       0          0
MIT-F            9.00       0          4.00       0          0
JUN15            9.00       0          3.00       0          0
JUN16            9.00       0          3.00       0          0
JUN18            9.00       0          3.00       0          0
JUN19            9.00       0          3.00       0          0
MIT-E            9.00       0          4.00       0          0
JUN20            9.00       0          3.00       0          0
JUN22            9.00       0          3.00       0          0
JUN23            9.00       0          3.00       0          0
MIT-G            9.00       0          4.00       0          0
JUN17            9.00       0          3.00       0          0
146              9.00       0          3.00       0          0
147              9.00       0          3.00       0          0
148              9.00       0          3.00       0          0
160              9.00       0          3.00       0          0
JUN9B            9.00       0          3.00       0          0
164              9.00       0          3.00       0          0
166              9.00       0          3.00       0          0
168              9.00       0          3.00       0          0
170              9.00       0          3.00       0          0
173              9.00       0          3.00       0          0
175              9.00       0          3.00       0          0
177              9.00       0          3.00       0          0
179              9.00       0          3.00       0          0
RC-J7            9.00       0          1.38       0          0
457              9.00       0          0          0          0
RIVER-C          9.00       0          0          0          0
DMHM-1           7.00       0          0.80       0          0
DMHM-2           5.50       0          0          0          0
RC-J6            8.00       0          0          0          0
RC-J5            8.00       0          0          0          0
RC-J4            7.00       0          0          0          0
RC-J3            7.00       0          0          0          0
RC-J2            7.00       0          0          0          0
RC-J1            8.00       0          0          0          0
CBM-1            5.50       0          0          0          0
CBM-2            6.50       0          0          0          0
JUN12B           9.00       0          3.00       0          0
649              8.00       0          0          0          0
DMHM-4           4.30       0          0          0          0
DMHM-3           8.50       0          0          0          0
CBM-4            4.50       0          0          0          0
DMHM-7           8.00       0          0          0          0
DMHM-6           8.00       0          0          0          0
DMHM-5           3.00       0          0          0          0
RC-J8            8.00       0          0          0          0
RIVER-D          9.00       0          0          0          0
Cnt-str          9.00       0          0          0          0
RIVER-A          9.00       0          0          0          0
RIVER-B          9.00       0          0          0          0
RIVER-E          9.00       0          0          0          0
713              9.00       0          0          0          0
715              9.00       0          0          0          0
718              9.00       0          0          0          0
720              9.00       0          0          0          0

[STORAGE]
;;Name           Elev       MaxDepth   InitDepth  Shape      Curve/Params
;;-------------- ---------- ---------- ---------- ---------- ----------
Moon-F           9.00       -1.00      0          FUNCTIONAL 0 0          0
Moon-E           9.00       -1.00      0          FUNCTIONAL 0 0          0
MOON-G           7.00       -2.50      0          FUNCTIONAL 0 0          0
BASIN-2          9.00       -0.50      0          FUNCTIONAL 0 0          0
WELL             9.00       -4.90      9.00       FUNCTIONAL 1850.00 0          0
BASIN-3          9.00       -4.00      0          FUNCTIONAL 0 0          0
BASIN4           8.00       -2.00      0          FUNCTIONAL 0 0          0
HWM-7            8.00       -5.87      0          FUNCTIONAL 0 0          0
HWM-3            3.10       -1.25      0          FUNCTIONAL 0 0          0
HWM-4            3.00       -0.75      0          FUNCTIONAL 0 0          0
HWM-5            3.00       -1.25      0          FUNCTIONAL 0 0          0
HWM-6            3.00       -1.25      0          FUNCTIONAL 0 0          0
CBM-3            3.50       -1.40      0          FUNCTIONAL 0 0          0
EX-CB1           3.50       -1.10      0          FUNCTIONAL 0 0          0
EX-CB2           2.70       -0.54      0          FUNCTIONAL 0 0          0
HWM-8            5.00       -1.37      0          FUNCTIONAL 0 0          0

[CONDUITS]
;;Name           From             To               Length     Roughness  InOffset   OutOffset  InitFlow   MaxFlow
;;-------------- ---------------- ---------------- ---------- ---------- ---------- ---------- ---------- ----------
S-1              Moon-F           MIT-A            200.00     0          -3.00      -3.00      0          0
S-9A             MIT-A            Moon-E           200.00     0          -3.00      -3.00      0          0
S-9B             Moon-E           MIT-C            200.00     0          -3.00      -3.00      0          0
S-10A            MIT-C            Moon-D           250.00     0          -3.00      -3.00      0          0
S-10B            Moon-D           JUN4             250.00     0          -3.00      -3.00      0          0
223.1            JUN4             160              650.00     0          -3.00      -3.00      0          0
223.1            MnC/             JUN5             100.00     0          -3.00      -3.00      0          0
ST-1             JUN5             JUN7             150.00     0          -3.00      -3.00      0          0
223.1            JUN7             JUN8             100.00     0          -3.00      -3.00      0          0
RCB-1            RC-J1            JUN8             111.00     0.0120     -2.89      -3.00      0          0
RCB-8            RC-J7            JUN8             1623.00    0.0120     -1.38      -3.00      0          0
RC-BOX3          457              JUN8             1800.00    0.0120     3.00       -0.60      0          0
S-18A            JUN8             JUN9             450.00     0          -3.00      -3.00      0          0
S-18B            JUN9             JUN9B            550.00     0          -3.00      -3.00      0          0
ST-4             JUN10            JUN11            70.00      0          -3.00      -3.00      0          0
223.1            JUN11            JUN12            100.00     0          -3.00      -3.00      0          0
ST-5             JUN12            JUN12B           70.00      0          -3.00      -3.00      0          0
S-22             JUN13            JUN14            250.00     0          -3.00      -3.00      0          0
S-30             JUN14            175              150.00     0          -3.00      -3.00      0          0
S-32             JUN21            MIT-E            280.00     0          -3.00      -3.00      0          0
S-24             JUN8             JUN15            150.00     0          -3.00      -3.00      0          0
ST-3             JUN15            164              70.00      0          -3.00      -3.00      0          0
S-26A            JUN16            JUN17            220.00     0          -3.00      -3.00      0          0
S-27             JUN18            JUN19            500.00     0          -3.00      -3.00      0          0
S-28             JUN19            170              150.00     0          -3.00      -3.00      0          0
S-35             MIT-E            MIT-F            200.00     0          -3.00      -3.00      0          0
S-23             JUN14            JUN19            300.00     0          -3.00      -3.00      0          0
S-33             JUN18            JUN20            950.00     0          -3.00      -3.00      0          0
S-38             JUN20            168              300.00     0          -3.00      -3.00      0          0
S-34             JUN20            MIT-E            100.00     0          -3.00      -3.00      0          0
S-41             MIT-F            177              250.00     0          -3.00      -3.00      0          0
ST-6             JUN22            JUN23            70.00      0          -3.00      -3.00      0          0
S-43             JUN23            179              50.00      0          -3.00      -3.00      0          0
S-45             MIT-G            WELL             350.00     0          -3.00      -3.00      0          0
S-26B            JUN17            JUN18            160.00     0          -3.00      -3.00      0          0
EX-42"           MOON-G           DMHM-1           100.00     0.0120     -0.18      -0.62      0          0
S-2              MIT-A            146              120.00     0          -3.00      -3.00      0          0
S-3              146              147              250.00     0          -3.00      -3.00      0          0
S-4              147              148              350.00     0          -3.00      -3.00      0          0
S-5              148              MIT-B            350.00     0          -3.00      -3.00      0          0
223.1            160              MnC/             200.00     0          -3.00      -3.00      0          0
223.1            JUN9B            JUN10            50.00      0          -3.00      -3.00      0          0
S-25             164              JUN16            70.00      0          -3.00      -3.00      0          0
S-40             166              MIT-F            240.00     0          -3.00      -3.00      0          0
S-39             168              166              350.00     0          -3.00      -3.00      0          0
S-29             170              MIT-E            100.00     0          -3.00      -3.00      0          0
S-36             JUN21            173              1250.00    0          -3.00      -3.00      0          0
S-37             173              MIT-F            150.00     0          -3.00      -3.00      0          0
S-31             175              JUN21            300.00     0          -3.00      -3.00      0          0
S-42             177              JUN22            50.00      0          -3.00      -3.00      0          0
S-44             179              MIT-G            250.00     0          -3.00      -3.00      0          0
EX24"x38"        Moon             DMHM-4           210.00     0.0120     1.10       -0.19      0          0
RCP1             DMHM-1           DMHM-2           170.00     0.0012     -0.80      -1.65      0          0
RCP2             DMHM-2           JUN20            10.00      0.0012     -1.65      -1.70      0          0
RCB-7            HWM-7            RC-J6            114.00     0.0120     -1.11      -1.23      0          0
RCB-6            RC-J6            RC-J5            429.00     0.0120     -1.23      -1.66      0          0
RCB-5            RC-J5            RC-J4            195.00     0.0120     -1.66      -1.85      0          0
RCB-4            RC-J4            RC-J3            403.00     0.0120     -1.85      -2.26      0          0
RCB-3            RC-J3            RC-J2            270.00     0.0120     -2.26      -2.53      0          0
RCB-2            RC-J2            RC-J1            364.00     0.0120     -2.53      -2.89      0          0
PVC1             HWM-3            RC-J1            20.00      0.0090     0.60       -0.40      0          0
PVC2             HWM-4            RC-J2            24.00      0.0090     0.50       -0.46      0          0
PVC3             HWM-5            RC-J3            24.00      0.0090     0.50       -0.46      0          0
PVC4             HWM-6            RC-J4            24.00      0.0090     0.25       -0.70      0          0
PVC5             CBM-1            RC-J5            24.00      0.0090     0.23       0.09       0          0
PVC6             CBM-2            RC-J6            11.00      0.0090     -0.40      -0.46      0          0
223.1            JUN12B           JUN13            50.00      0          -3.00      -3.00      0          0
RCP-3            649              RC-J7            4.00       0.0120     1.00       0.95       0          0
RCB-12           DMHM-4           CBM-3            50.00      0.0120     -0.19      -0.32      0          0
RCB-11           CBM-3            DMHM-3           65.00      0.0120     -0.32      -0.64      0          0
RCB-10           DMHM-3           RC-J8            280.00     0.0120     -0.64      -0.92      0          0
RCP-4            EX-CB1           CBM-3            32.00      0.0120     0.40       0.08       0          0
PVC9             CBM-4            DMHM-7           29.00      0.0120     0          -0.03      0          0
PVC8             DMHM-7           DMHM-6           207.00     0.0120     -0.03      -0.23      0          0
PVC7             DMHM-6           DMHM-5           263.00     0.0120     -0.23      -0.49      0          0
RCB-13           DMHM-5           DMHM-3           180.00     0.0120     -0.49      -0.64      0          0
RCP-6            EX-CB2           DMHM-5           45.00      0.0120     0.16       -0.29      0          0
RCB-9            RC-J8            RC-J7            435.00     0.0120     -0.92      -1.38      0          0
PVC10            HWM-8            RC-J8            15.00      0.0120     0.63       0.33       0          0
24RCP            Cnt-str          JUN9             18.00      0.0120     1.00       0.50       0          0
714              MIT-B            713              550.00     0          -3.00      -3.00      0          0
716              713              715              300.00     0          -3.00      -3.00      0          0
717              715              MnC/             200.00     0          -3.00      -3.00      0          0
719              MIT-B            718              350.00     0          -3.00      -3.00      0          0
721              718              720              450.00     0          -3.00      -3.00      0          0
722              720              MIT-C            150.00     0          -3.00      -3.00      0          0
ST-2             MIT-B            JUN20            70.00      0          -0.50      -0.50      0          0
CHANNEL          HWM-8            HWM-7            200.00     0.0300     0.63       -0.87      0          0

[ORIFICES]
;;Name           From             To               Type       Offset     Qcoeff     Gated    CloseTime
;;-------------- ---------------- ---------------- ---------- ---------- ---------- -------- ----------
orifice          sec disch        weir             SIDE       1.50       0.650      NO       0
orifice          BASIN-2          649              SIDE       4.50       0.650      NO       0
458              6x4a             6x4b             SIDE       4.50       0.650      NO       0
TIDE1            TIDE GATE1       RIVER-C          SIDE       0          0.650      NO       0
TIDE2            TIDE GATE2       RIVER-D          SIDE       0          0.650      NO       0
Weir             Spill3-1         Spill3-2         SIDE       1.00       0.650      NO       0
ORIFICE-3        BASIN-3          Cnt-str          SIDE       1.00       0.650      NO       0
TIDE3            TIDE GATE3       RIVER-E          SIDE       0          0.650      NO       0

[PUMPS]
;;Name           From             To               PumpCurve  Status   Startup    Shutoff
;;-------------- ---------------- ---------------- ---------- -------- ---------- ----------
PS1              WELL             RIVER-A          PC_PS1     ON       0.75       0         
PS2              WELL             RIVER-B          PC_PS2     ON       1.25       0.50      

[CURVES]
;;Name           Type       X-Value    Y-Value
;;-------------- ---------- ---------- ----------
PC_PS1           Pump3      0          0
;
PC_PS2           Pump3      0          0
;

[XSECTIONS]
;;Link           Shape        Geom1      Geom2      Geom3      Geom4      Barrels
;;-------------- ------------ ---------- ---------- ---------- ---------- ----------
S-1              IRREGULAR    0          0          0          0          1
S-9A             IRREGULAR    0          0          0          0          1
S-9B             IRREGULAR    0          0          0          0          1
S-10A            IRREGULAR    0          0          0          0          1
S-10B            IRREGULAR    0          0          0          0          1
223.1            IRREGULAR    0          0          0          0          1
223.1            IRREGULAR    0          0          0          0          1
ST-1             IRREGULAR    0          0          0          0          1
223.1            IRREGULAR    0          0          0          0          1
RCB-1            RECT_CLOSED  4.00       6.00       0          0          1
RCB-8            RECT_CLOSED  4.00       8.00       0          0          1
RC-BOX3          RECT_CLOSED  4.00       8.00       0          0          1
S-18A            IRREGULAR    0          0          0          0          1
S-18B            IRREGULAR    0          0          0          0          1
ST-4             IRREGULAR    0          0          0          0          1
223.1            IRREGULAR    0          0          0          0          1
ST-5             IRREGULAR    0          0          0          0          1
S-22             IRREGULAR    0          0          0          0          1
S-30             IRREGULAR    0          0          0          0          1
S-32             IRREGULAR    0          0          0          0          1
S-24             IRREGULAR    0          0          0          0          1
ST-3             IRREGULAR    0          0          0          0          1
S-26A            IRREGULAR    0          0          0          0          1
S-27             IRREGULAR    0          0          0          0          1
S-28             IRREGULAR    0          0          0          0          1
S-35             IRREGULAR    0          0          0          0          1
S-23             IRREGULAR    0          0          0          0          1
S-33             IRREGULAR    0          0          0          0          1
S-38             IRREGULAR    0          0          0          0          1
S-34             IRREGULAR    0          0          0          0          1
S-41             IRREGULAR    0          0          0          0          1
ST-6             IRREGULAR    0          0          0          0          1
S-43             IRREGULAR    0          0          0          0          1
S-45             IRREGULAR    0          0          0          0          1
S-26B            IRREGULAR    0          0          0          0          1
EX-42"           CIRCULAR     3.50       0          0          0          1
S-2              IRREGULAR    0          0          0          0          1
S-3              IRREGULAR    0          0          0          0          1
S-4              IRREGULAR    0          0          0          0          1
S-5              IRREGULAR    0          0          0          0          1
223.1            IRREGULAR    0          0          0          0          1
223.1            IRREGULAR    0          0          0          0          1
S-25             IRREGULAR    0          0          0          0          1
S-40             IRREGULAR    0          0          0          0          1
S-39             IRREGULAR    0          0          0          0          1
S-29             IRREGULAR    0          0          0          0          1
S-36             IRREGULAR    0          0          0          0          1
S-37             IRREGULAR    0          0          0          0          1
S-31             IRREGULAR    0          0          0          0          1
S-42             IRREGULAR    0          0          0          0          1
S-44             IRREGULAR    0          0          0          0          1
EX24"x38"        CIRCULAR     2.50       4.00       0          0          1
RCP1             CIRCULAR     3.50       0          0          0          1
RCP2             CIRCULAR     3.50       0          0          0          1
RCB-7            RECT_CLOSED  3.00       5.00       0          0          1
RCB-6            RECT_CLOSED  3.00       5.00       0          0          1
RCB-5            RECT_CLOSED  3.00       5.00       0          0          1
RCB-4            RECT_CLOSED  3.00       6.00       0          0          1
RCB-3            RECT_CLOSED  4.00       6.00       0          0          1
RCB-2            RECT_CLOSED  4.00       6.00       0          0          1
PVC1             CIRCULAR     1.25       0          0          0          1
PVC2             CIRCULAR     1.75       0          0          0          1
PVC3             CIRCULAR     1.25       0          0          0          1
PVC4             CIRCULAR     1.50       0          0          0          1
PVC5             CIRCULAR     1.75       0          0          0          1
PVC6             CIRCULAR     1.75       0          0          0          1
223.1            IRREGULAR    0          0          0          0          1
RCP-3            CIRCULAR     1.50       0          0          0          1
RCB-12           RECT_CLOSED  2.00       4.00       0          0          1
RCB-11           RECT_CLOSED  2.00       4.00       0          0          1
RCB-10           RECT_CLOSED  4.00       8.00       0          0          1
RCP-4            CIRCULAR     2.00       0          0          0          1
PVC9             CIRCULAR     2.50       0          0          0          1
PVC8             CIRCULAR     2.50       0          0          0          1
PVC7             CIRCULAR     2.50       0          0          0          1
RCB-13           RECT_CLOSED  2.00       5.00       0          0          1
RCP-6            CIRCULAR     2.00       0          0          0          1
RCB-9            RECT_CLOSED  4.00       8.00       0          0          1
PVC10            CIRCULAR     2.00       0          0          0          1
24RCP            CIRCULAR     2.00       0          0          0          1
714              IRREGULAR    0          0          0          0          1
716              IRREGULAR    0          0          0          0          1
717              IRREGULAR    0          0          0          0          1
719              IRREGULAR    0          0          0          0          1
721              IRREGULAR    0          0          0          0          1
722              IRREGULAR    0          0          0          0          1
ST-2             IRREGULAR    0          0          0          0          1
CHANNEL          TRAPEZOIDAL  3.00       5.00       0          0          1
orifice          RECT_CLOSED  2.00       0          0          0          
orifice          RECT_CLOSED  4.00       0          0          0          
458              RECT_CLOSED  4.00       0          0          0          
TIDE1            RECT_CLOSED  5.00       0          0          0          
TIDE2            RECT_CLOSED  5.00       0          0          0          
Weir             RECT_CLOSED  1.00       0          0          0          
ORIFICE-3        RECT_CLOSED  1.00       0          0          0          
TIDE3            RECT_CLOSED  5.00       0          0          0          

[LOSSES]
;;Link           Inlet      Outlet     Average    Flap Gate
;;-------------- ---------- ---------- ---------- ----------
S-1              0          0          0          NO
S-9A             0          0          0          NO
S-9B             0          0          0          NO
S-10A            0          0          0          NO
S-10B            0          0          0          NO
223.1            0          0          0          NO
223.1            0          0          0          NO
ST-1             0          0          0          NO
223.1            0          0          0          NO
RCB-1            0          0          0          NO
RCB-8            0          0          0          NO
RC-BOX3          0          0          0          NO
S-18A            0          0          0          NO
S-18B            0          0          0          NO
ST-4             0          0          0          NO
223.1            0          0          0          NO
ST-5             0          0          0          NO
S-22             0          0          0          NO
S-30             0          0          0          NO
S-32             0          0          0          NO
S-24             0          0          0          NO
ST-3             0          0          0          NO
S-26A            0          0          0          NO
S-27             0          0          0          NO
S-28             0          0          0          NO
S-35             0          0          0          NO
S-23             0          0          0          NO
S-33             0          0          0          NO
S-38             0          0          0          NO
S-34             0          0          0          NO
S-41             0          0          0          NO
ST-6             0          0          0          NO
S-43             0          0          0          NO
S-45             0          0          0          NO
S-26B            0          0          0          NO
EX-42"           0          0          0          NO
S-2              0          0          0          NO
S-3              0          0          0          NO
S-4              0          0          0          NO
S-5              0          0          0          NO
223.1            0          0          0          NO
223.1            0          0          0          NO
S-25             0          0          0          NO
S-40             0          0          0          NO
S-39             0          0          0          NO
S-29             0          0          0          NO
S-36             0          0          0          NO
S-37             0          0          0          NO
S-31             0          0          0          NO
S-42             0          0          0          NO
S-44             0          0          0          NO
EX24"x38"        0          0          0          NO
RCP1             0          0          0          NO
RCP2             0          0          0          NO
RCB-7            0          0          0          NO
RCB-6            0          0          0          NO
RCB-5            0          0          0          NO
RCB-4            0          0          0          NO
RCB-3            0          0          0          NO
RCB-2            0          0          0          NO
PVC1             0          0          0          NO
PVC2             0          0          0          NO
PVC3             0          0          0          NO
PVC4             0          0          0          NO
PVC5             0          0          0          NO
PVC6             0          0          0          NO
223.1            0          0          0          NO
RCP-3            0          0          0          NO
RCB-12           0          0          0          NO
RCB-11           0          0          0          NO
RCB-10           0          0          0          NO
RCP-4            0          0          0          NO
PVC9             0          0          0          NO
PVC8             0          0          0          NO
PVC7             0          0          0          NO
RCB-13           0          0          0          NO
RCP-6            0          0          0          NO
RCB-9            0          0          0          NO
PVC10            0          0          0          NO
24RCP            0          0          0          NO
714              0          0          0          NO
716              0          0          0          NO
717              0          0          0          NO