;; SWMM5 .inp converted from XPSWMM .xp file
;; Generated by XPSWMM Card Reader
;; Source format: XP_CARD | Original title: SWMM EXTRAN INPUT DATA FOR NBC SYSTEM               RIDEM 1yr DESIGN STORM

[TITLE]
;;Project Title/Notes
SWMM EXTRAN INPUT DATA FOR NBC SYSTEM               RIDEM 1yr DESIGN STORM

[OPTIONS]
FLOW_UNITS           CFS
INFILTRATION         HORTON
FLOW_ROUTING         DYNWAVE
LINK_OFFSETS         DEPTH
MIN_SLOPE            0.0
ALLOW_PONDING        NO
SKIP_STEADY_STATE    NO
ROUTING_STEP         00:00:10
VARIABLE_STEP        0.75
INERTIAL_DAMPING     NONE
NORMAL_FLOW_LIMITED  BOTH
MAX_TRIALS           40
HEAD_TOLERANCE       0.0033

[JUNCTIONS]
;;Name           Elev       MaxDepth   InitDepth  SurDepth   Aponded
;;-------------- ---------- ---------- ---------- ---------- ----------
x9001            181.20     0          0          0          0
x9002            180.30     0          0          0          0
x9003            178.99     0          0          0          0
x9004            177.75     0          0          0          0
x9005            176.95     0          0          0          0
x9006            175.50     0          0          0          0
x9007            165.00     0          0          0          0
x9008            163.78     0          0          0          0
x9009            161.83     0          0          0          0
x9010            159.00     0          0          0          0
x9011            175.00     0          0          0          0
x9012            175.00     0          0          0          0
x9015            172.06     0          0          0          0
x9016            171.69     0          0          0          0
x9017            155.42     0          0          0          0
x9018            161.40     0          0          0          0
x9019            161.34     0          0          0          0
x9041            157.28     0          0          0          0
x9020            161.18     0          0          0          0
x9021            159.67     0          0          0          0
x9022            158.76     0          0          0          0
x9023            158.41     0          0          0          0
x9024            158.13     0          0          0          0
x9026            155.73     0          0          0          0
x9028            155.28     0          0          0          0
x9029            155.28     0          0          0          0
x9030            156.73     0          0          0          0
x9032            149.42     0          0          0          0
x9033            149.21     0          0          0          0
x9034            163.08     0          0          0          0
x9530            146.27     0          0          0          0
x9037            145.19     0          0          0          0
x9038            144.49     0          0          0          0
x9039            146.27     0          0          0          0
x9040            141.51     0          0          0          0
x9043            146.69     0          0          0          0
x9044            145.89     0          0          0          0
x9045            145.91     0          0          0          0
x9046            146.46     0          0          0          0
x9047            146.02     0          0          0          0
x9048            144.51     0          0          0          0
x9049            140.43     0          0          0          0
x9050            148.37     0          0          0          0
x9051            149.06     0          0          0          0
x9053            141.12     0          0          0          0
x9054            139.48     0          0          0          0
x9055            137.09     0          0          0          0
x9500            180.58     0          0          0          0
x9501            180.30     0          0          0          0
x9502            178.99     0          0          0          0
x9503            177.55     0          0          0          0
x9504            176.79     0          0          0          0
x9505            175.50     0          0          0          0
x9506            161.00     0          0          0          0
x9507            175.00     0          0          0          0
x9509            163.78     0          0          0          0
x9511            155.00     0          0          0          0
x902             217.00     0          0          0          0
x9512            155.93     0          0          0          0
x9513            172.06     0          0          0          0
x9514            171.69     0          0          0          0
x9515            155.42     0          0          0          0
x9516            161.40     0          0          0          0
x9517            161.34     0          0          0          0
x9518            161.18     0          0          0          0
x9519            159.67     0          0          0          0
x9520            178.76     0          0          0          0
x9521            178.41     0          0          0          0
x9522            178.76     0          0          0          0
x9523            178.41     0          0          0          0
x9527            169.21     0          0          0          0
x9532            147.98     0          0          0          0
x9534            145.89     0          0          0          0
x9535            145.91     0          0          0          0
x9536            146.46     0          0          0          0
x9537            146.02     0          0          0          0
x9538            144.51     0          0          0          0
x9539            140.43     0          0          0          0
x9540            148.37     0          0          0          0
x9541            149.06     0          0          0          0
x9545            136.29     0          0          0          0
x9546            135.92     0          0          0          0
x9547            134.66     0          0          0          0
x9550            136.00     0          0          0          0
x9552            136.00     0          0          0          0
x9553            136.00     0          0          0          0
480              189.50     0          0          0          0
2102             150.70     0          0          0          0
2104             124.00     0          0          0          0
2105             122.00     0          0          0          0
2106             122.00     0          0          0          0
650              166.50     0          0          0          0
2110             141.50     0          0          0          0
2113             122.00     0          0          0          0
2114             122.00     0          0          0          0
2115             122.00     0          0          0          0
2116             122.00     0          0          0          0
2117             122.00     0          0          0          0
2118             122.00     0          0          0          0
2120             122.00     0          0          0          0
461              136.00     0          0          0          0
462              140.30     0          0          0          0
2121             118.91     0          0          0          0
2122             118.91     0          0          0          0
4611             131.00     0          0          0          0
4600             118.91     0          0          0          0
4621             126.50     0          0          0          0
2124             121.00     0          0          0          0
2125             118.02     0          0          0          0
2127             120.21     0          0          0          0
2128             124.30     0          0          0          0
580              119.88     0          0          0          0
5801             119.70     0          0          0          0
2005             188.00     0          0          0          0
2011             185.00     0          0          0          0
2015             183.00     0          0          0          0
2020             182.00     0          0          0          0
2030             178.00     0          0          0          0
2035             177.00     0          0          0          0
2041             175.00     0          0          0          0
2045             177.00     0          0          0          0
2051             175.00     0          0          0          0
2055             170.00     0          0          0          0
2060             170.00     0          0          0          0
454              145.00     0          0          0          0
452              142.00     0          0          0          0
453              146.00     0          0          0          0
4502             140.00     0          0          0          0
4503             139.00     0          0          0          0
4504             145.00     0          0          0          0
4505             127.70     0          0          0          0
4507             144.00     0          0          0          0
4508             143.00     0          0          0          0
2131             146.00     0          0          0          0
2137             139.00     0          0          0          0
2138             137.00     0          0          0          0
2139             139.00     0          0          0          0
2142             118.50     0          0          0          0
2143             118.32     0          0          0          0
2144             118.12     0          0          0          0
2145             118.71     0          0          0          0
2146             119.05     0          0          0          0
2147             119.08     0          0          0          0
2149             118.93     0          0          0          0
2150             118.84     0          0          0          0
440              126.57     0          0          0          0
441              120.29     0          0          0          0
2152             118.84     0          0          0          0
2154             118.67     0          0          0          0
430              122.00     0          0          0          0
431              119.80     0          0          0          0
420              129.00     0          0          0          0
4201             125.00     0          0          0          0
2156             118.59     0          0          0          0
400              122.20     0          0          0          0
2158             121.40     0          0          0          0
2167             116.55     0          0          0          0
2168             115.00     0          0          0          0
2169             114.00     0          0          0          0
2172             117.50     0          0          0          0
2175             115.00     0          0          0          0
a2               170.40     0          0          0          0
a7               170.80     0          0          0          0
a9               172.00     0          0          0          0
a11              170.50     0          0          0          0
a13              169.30     0          0          0          0
a15              162.78     0          0          0          0
a17              162.78     0          0          0          0
a18              103.76     0          0          0          0
a101             172.70     0          0          0          0
a102             170.40     0          0          0          0
a103             174.20     0          0          0          0
a104             171.80     0          0          0          0
a106             168.60     0          0          0          0
a108             171.50     0          0          0          0
a110             170.00     0          0          0          0
a111             169.50     0          0          0          0
a112             169.00     0          0          0          0
a113             168.70     0          0          0          0
a114             168.40     0          0          0          0
a115             168.20     0          0          0          0
a19              172.00     0          0          0          0
a20              172.00     0          0          0          0
a21              166.00     0          0          0          0
a22              164.00     0          0          0          0
a23              145.00     0          0          0          0
a24              144.00     0          0          0          0
a36              113.20     0          0          0          0
a40              113.20     0          0          0          0
a41              113.20     0          0          0          0
a42              113.40     0          0          0          0
a43              114.00     0          0          0          0
a44              112.60     0          0          0          0
a45              113.20     0          0          0          0
a46              114.40     0          0          0          0
a47              120.60     0          0          0          0
a226             129.00     0          0          0          0
a48              118.00     0          0          0          0
a50              116.50     0          0          0          0
a325             113.55     0          0          0          0
a51              115.60     0          0          0          0
a52              115.60     0          0          0          0
a53              116.00     0          0          0          0
a54              115.40     0          0          0          0
a55              114.90     0          0          0          0
a56              115.30     0          0          0          0
a57              115.60     0          0          0          0
a58              115.60     0          0          0          0
a59              116.10     0          0          0          0
a224             122.00     0          0          0          0
a124             121.47     0          0          0          0
a60              116.00     0          0          0          0
a61              115.40     0          0          0          0
a62              115.80     0          0          0          0
a63              115.60     0          0          0          0
a64              115.30     0          0          0          0
a65              115.30     0          0          0          0
a66              120.50     0          0          0          0
a67              120.65     0          0          0          0
a68              120.72     0          0          0          0
a69              120.92     0          0          0          0
a70              121.00     0          0          0          0
a323             117.00     0          0          0          0
a71              121.20     0          0          0          0
a72              111.80     0          0          0          0
a73              111.10     0          0          0          0
a74              113.50     0          0          0          0
a75              112.50     0          0          0          0
a76              115.00     0          0          0          0
a77              135.00     0          0          0          0
a80              127.40     0          0          0          0
a81              122.40     0          0          0          0
a82              121.40     0          0          0          0
a83              120.00     0          0          0          0
a84              119.20     0          0          0          0
a85              120.64     0          0          0          0
a86              121.31     0          0          0          0
a87              120.10     0          0          0          0
a222             116.50     0          0          0          0
a122             116.60     0          0          0          0
a322             115.71     0          0          0          0
a88              117.90     0          0          0          0
a221             117.00     0          0          0          0
a121             117.03     0          0          0          0
a90              121.37     0          0          0          0
a220             126.00     0          0          0          0
a120             118.99     0          0          0          0
a91              120.71     0          0          0          0
a92              119.17     0          0          0          0
a93              120.30     0          0          0          0
a94              121.80     0          0          0          0
a95              119.41     0          0          0          0
a96              121.28     0          0          0          0
a97              118.06     0          0          0          0
a36001           140.00     0          0          0          0
a36002           145.00     0          0          0          0
a36040           152.00     0          0          0          0
a364             158.00     0          0          0          0
a36020           156.00     0          0          0          0
a36021           175.00     0          0          0          0
a36022           194.40     0          0          0          0
a36023           200.00     0          0          0          0
a36098           145.00     0          0          0          0
a36099           140.00     0          0          0          0
a36000           140.00     0          0          0          0
a36011           183.00     0          0          0          0
a361             160.00     0          0          0          0
a36030           150.00     0          0          0          0
a36031           163.00     0          0          0          0
a10036           147.20     0          0          0          0
a10043           132.00     0          0          0          0
a301             139.00     0          0          0          0
a37001           144.00     0          0          0          0
a37000           138.00     0          0          0          0
a37004           169.00     0          0          0          0
a370             174.00     0          0          0          0
a22222           147.00     0          0          0          0
a20003           178.50     0          0          0          0
a205             172.50     0          0          0          0
a20007           160.80     0          0          0          0
a208             153.00     0          0          0          0
a20009           152.00     0          0          0          0
a40001           170.00     0          0          0          0
a40007           186.80     0          0          0          0
a401             186.50     0          0          0          0
a206             149.00     0          0          0          0
a20017           148.00     0          0          0          0
a56000           160.50     0          0          0          0
a56002           190.00     0          0          0          0
a20028           163.00     0          0          0          0
a203             180.00     0          0          0          0
a204             185.00     0          0          0          0
a201             198.20     0          0          0          0
a38004           150.00     0          0          0          0
a38003           150.00     0          0          0          0
a38001           145.00     0          0          0          0
a38007           137.00     0          0          0          0
a38000           140.50     0          0          0          0
a38008           170.50     0          0          0          0
a38009           176.00     0          0          0          0
a10027           130.40     0          0          0          0
a35001           142.00     0          0          0          0
a35000           135.00     0          0          0          0
a350             150.00     0          0          0          0
a10024           126.00     0          0          0          0
a34000           127.00     0          0          0          0
a34002           166.00     0          0          0          0
a343             167.00     0          0          0          0
a10023           126.00     0          0          0          0
a33001           132.75     0          0          0          0
a33000           134.00     0          0          0          0
a332             175.00     0          0          0          0
a10022           126.80     0          0          0          0
a32000           132.00     0          0          0          0
a32003           133.60     0          0          0          0
a32005           135.30     0          0          0          0
a32006           135.50     0          0          0          0
a32007           140.00     0          0          0          0
a32008           159.60     0          0          0          0
a32010           135.50     0          0          0          0
a32011           132.00     0          0          0          0
a392             138.40     0          0          0          0
a32013           152.50     0          0          0          0
a32014           153.00     0          0          0          0
a32017           153.00     0          0          0          0
a32018           160.50     0          0          0          0
a32019           182.50     0          0          0          0
a32021           197.80     0          0          0          0
a39005           199.00     0          0          0          0
a39006           180.00     0          0          0          0
a39007           176.00     0          0          0          0
a39000           146.30     0          0          0          0
a398             246.00     0          0          0          0
a39003           253.00     0          0          0          0
a399             263.00     0          0          0          0
a10020           123.50     0          0          0          0
a31001           123.70     0          0          0          0
a31002           131.70     0          0          0          0
a29002           140.00     0          0          0          0
a29001           149.00     0          0          0          0
a293             183.00     0          0          0          0
a10018           128.00     0          0          0          0
a10014           117.80     0          0          0          0
a12001           119.20     0          0          0          0
a12005           181.00     0          0          0          0
a12007           129.00     0          0          0          0
a30000           125.30     0          0          0          0
a10013           116.40     0          0          0          0
a13000           116.40     0          0          0          0
a13001           116.70     0          0          0          0
a10012           116.70     0          0          0          0
a15000           121.00     0          0          0          0
a15001           117.00     0          0          0          0
a15002           123.00     0          0          0          0
a10003           115.10     0          0          0          0
a16000           130.00     0          0          0          0
a16001           115.00     0          0          0          0
a16002           117.00     0          0          0          0
a16003           121.50     0          0          0          0
a16004           124.50     0          0          0          0
a16005           125.50     0          0          0          0
9890             178.20     0          0          0          0
9880             176.20     0          0          0          0
9870             174.20     0          0          0          0
9860             172.20     0          0          0          0
9861             178.40     0          0          0          0
9862             191.80     0          0          0          0
9863             206.20     0          0          0          0
9864             209.20     0          0          0          0
9865             209.00     0          0          0          0
9866             211.70     0          0          0          0
9867             217.80     0          0          0          0
9850             170.90     0          0          0          0
9840             169.60     0          0          0          0
9830             165.00     0          0          0          0
9820             160.40     0          0          0          0
9810             157.70     0          0          0          0
9800             154.90     0          0          0          0
9705             179.00     0          0          0          0
9715             187.00     0          0          0          0
9720             188.20     0          0          0          0
9725             190.30     0          0          0          0
9735             197.60     0          0          0          0
9740             197.50     0          0          0          0
9745             197.40     0          0          0          0
9750             196.00     0          0          0          0
9755             194.60     0          0          0          0
9760             192.60     0          0          0          0
9770             188.80     0          0          0          0
9550             185.70     0          0          0          0
5501             183.00     0          0          0          0
9525             181.50     0          0          0          0
9500             180.00     0          0          0          0
9475             165.00     0          0          0          0
9450             151.00     0          0          0          0
5401             162.40     0          0          0          0
5402             162.40     0          0          0          0
c5420            186.00     0          0          0          0
9425             148.50     0          0          0          0
9400             146.20     0          0          0          0
9250             153.60     0          0          0          0
5252             166.00     0          0          0          0
9200             137.10     0          0          0          0
9000             135.20     0          0          0          0
5001             134.80     0          0          0          0
5002             134.80     0          0          0          0
4905             126.60     0          0          0          0
4912             134.00     0          0          0          0
4917             136.60     0          0          0          0
4916             136.90     0          0          0          0
4301             136.60     0          0          0          0
4300             133.60     0          0          0          0
c4200            124.40     0          0          0          0
4920             139.20     0          0          0          0
c4930            136.00     0          0          0          0
4940             140.40     0          0          0          0
4950             146.80     0          0          0          0
4960             161.00     0          0          0          0
4970             163.10     0          0          0          0
4975             165.20     0          0          0          0
4980             177.50     0          0          0          0
c4990            180.00     0          0          0          0
9100             138.50     0          0          0          0
9110             138.00     0          0          0          0
9120             137.60     0          0          0          0
9130             139.40     0          0          0          0
9140             147.80     0          0          0          0
5102             148.20     0          0          0          0
c5150            166.40     0          0          0          0
9300             136.60     0          0          0          0
9305             138.20     0          0          0          0
9310             147.40     0          0          0          0
5302             153.20     0          0          0          0
5303             150.00     0          0          0          0
5313             150.00     0          0          0          0
5351             150.00     0          0          0          0
5352             155.60     0          0          0          0
d2               140.00     0          0          0          0
d3               134.00     0          0          0          0
d41              136.00     0          0          0          0
d61              126.04     0          0          0          0
d100             135.00     0          0          0          0
d101             134.00     0          0          0          0
d102             134.00     0          0          0          0
d103             134.00     0          0          0          0
d104             134.00     0          0          0          0
d105             133.00     0          0          0          0
d106             133.00     0          0          0          0
d107             133.00     0          0          0          0
d108             133.00     0          0          0          0
d109             132.00     0          0          0          0
d110             132.00     0          0          0          0
d111             132.00     0          0          0          0
d113             129.00     0          0          0          0
d63              125.45     0          0          0          0
d43              125.00     0          0          0          0
d1               165.00     0          0          0          0
d500             164.00     0          0          0          0
d501             163.00     0          0          0          0
d502             162.00     0          0          0          0
d503             160.00     0          0          0          0
d152             152.00     0          0          0          0
d153             147.00     0          0          0          0