;; SWMM5 .inp converted from XPSWMM .xp file
;; Generated by XPSWMM Card Reader
;; Source format: XP_CARD | Original title: (none)

[TITLE]
;;Project Title/Notes
Converted from XPSWMM .xp file

[OPTIONS]
FLOW_UNITS           CFS
INFILTRATION         HORTON
FLOW_ROUTING         DYNWAVE
LINK_OFFSETS         DEPTH
MIN_SLOPE            0.0
ALLOW_PONDING        NO
SKIP_STEADY_STATE    NO
INERTIAL_DAMPING     PARTIAL
NORMAL_FLOW_LIMITED  BOTH

[JUNCTIONS]
;;Name           Elev       MaxDepth   InitDepth  SurDepth   Aponded
;;-------------- ---------- ---------- ---------- ---------- ----------
K15009           0          0          0          0          0
Q66044           0          0          0          0          0
Q66005           0          0          0          0          0
Q66043           0          0          0          0          0
Q66042           0          0          0          0          0
Q66041           0          0          0          0          0
Q66040           0          0          0          0          0
Q66001           0          0          0          0          0
P34001           0          0          0          0          0
P30013           0          0          0          0          0
M06711           0          0          0          0          0
M06376           0          0          0          0          0
Q46100           0          0          0          0          0
R46013           0          0          0          0          0
Q46099           0          0          0          0          0
R46012           0          0          0          0          0
R46011           0          0          0          0          0
S06012           0          0          0          0          0
S06011           0          0          0          0          0
M14249           0          0          0          0          0
M14094           0          0          0          0          0
M14248           0          0          0          0          0
M14247           0          0          0          0          0
M14095           0          0          0          0          0
M10113           0          0          0          0          0
M14087           0          0          0          0          0
M14086           0          0          0          0          0
M14085           0          0          0          0          0
M14084           0          0          0          0          0
M14083           0          0          0          0          0
M14082           0          0          0          0          0
M14081           0          0          0          0          0
M14080           0          0          0          0          0
M10310           0          0          0          0          0
M10309           0          0          0          0          0
M10251           0          0          0          0          0
M10258           0          0          0          0          0
M10130           0          0          0          0          0
M06046           0          0          0          0          0
M10129           0          0          0          0          0
M10128           0          0          0          0          0
M10127           0          0          0          0          0
M10126           0          0          0          0          0
M10125           0          0          0          0          0
M10124           0          0          0          0          0
M10123           0          0          0          0          0
M10122           0          0          0          0          0
M10121           0          0          0          0          0
M10119           0          0          0          0          0
M10120           0          0          0          0          0
M10118           0          0          0          0          0
M06017           0          0          0          0          0
M06053           0          0          0          0          0
M06379           0          0          0          0          0
M06377           0          0          0          0          0
L06087           0          0          0          0          0
L06092           0          0          0          0          0
L06094           0          0          0          0          0
L06437           0          0          0          0          0
L06438           0          0          0          0          0
L06040           0          0          0          0          0
L06016           0          0          0          0          0
L06004           0          0          0          0          0
M06003           0          0          0          0          0
N06009           0          0          0          0          0
M06055           0          0          0          0          0
M06054           0          0          0          0          0
M06049           0          0          0          0          0
M06048           0          0          0          0          0
M06047           0          0          0          0          0
N06008           0          0          0          0          0
N06007           0          0          0          0          0
N06006           0          0          0          0          0
N06005           0          0          0          0          0
N06001           0          0          0          0          0
O06083           0          0          0          0          0
K06300           0          0          0          0          0
K06290           0          0          0          0          0
K06289           0          0          0          0          0
K06005           0          0          0          0          0
N14361           0          0          0          0          0
N14360           0          0          0          0          0
N14359           0          0          0          0          0
N14358           0          0          0          0          0
N14357           0          0          0          0          0
N14356           0          0          0          0          0
N14355           0          0          0          0          0
N14354           0          0          0          0          0
N14353           0          0          0          0          0
O10250           0          0          0          0          0
O07284           0          0          0          0          0
O03299           0          0          0          0          0
O06082           0          0          0          0          0
O06025           0          0          0          0          0
O06024           0          0          0          0          0
O06017           0          0          0          0          0
O06001           0          0          0          0          0
P06119           0          0          0          0          0
O10249           0          0          0          0          0
O10248           0          0          0          0          0
O10247           0          0          0          0          0
O10246           0          0          0          0          0
O10245           0          0          0          0          0
O10244           0          0          0          0          0
O10243           0          0          0          0          0
O10242           0          0          0          0          0
O10241           0          0          0          0          0
O10240           0          0          0          0          0
O10239           0          0          0          0          0
O10238           0          0          0          0          0
P10047           0          0          0          0          0
O10103           0          0          0          0          0
P10043           0          0          0          0          0
O10102           0          0          0          0          0
O10101           0          0          0          0          0
S06010           0          0          0          0          0
S06009           0          0          0          0          0
R06005           0          0          0          0          0
P06157           0          0          0          0          0
P06156           0          0          0          0          0
P06155           0          0          0          0          0
P06152           0          0          0          0          0
P06151           0          0          0          0          0
P06150           0          0          0          0          0
P06149           0          0          0          0          0
Q06086           0          0          0          0          0
P06148           0          0          0          0          0
Q06055           0          0          0          0          0
P06147           0          0          0          0          0
P06146           0          0          0          0          0
P06014           0          0          0          0          0
P10046           0          0          0          0          0
P10045           0          0          0          0          0
P10044           0          0          0          0          0
P10037           0          0          0          0          0
P10042           0          0          0          0          0
P10041           0          0          0          0          0
P10040           0          0          0          0          0
P10039           0          0          0          0          0
P10038           0          0          0          0          0
P10036           0          0          0          0          0
P10035           0          0          0          0          0
P10034           0          0          0          0          0
P10033           0          0          0          0          0
P10032           0          0          0          0          0
Q10062           0          0          0          0          0
P10031           0          0          0          0          0
Q10068           0          0          0          0          0
N26001           0          0          0          0          0
N26148           0          0          0          0          0
Q06085           0          0          0          0          0
Q06066           0          0          0          0          0
Q06068           0          0          0          0          0
Q06057           0          0          0          0          0
Q06067           0          0          0          0          0
Q10061           0          0          0          0          0
Q06065           0          0          0          0          0
Q06064           0          0          0          0          0
Q06059           0          0          0          0          0
Q06063           0          0          0          0          0
Q06062           0          0          0          0          0
Q06061           0          0          0          0          0
Q06060           0          0          0          0          0
Q06058           0          0          0          0          0
Q06050           0          0          0          0          0
Q06056           0          0          0          0          0
Q06051           0          0          0          0          0
Q06049           0          0          0          0          0
Q06048           0          0          0          0          0
Q06047           0          0          0          0          0
Q06046           0          0          0          0          0
Q06045           0          0          0          0          0
Q06037           0          0          0          0          0
Q06044           0          0          0          0          0
Q06002           0          0          0          0          0
Q14154           0          0          0          0          0
Q14143           0          0          0          0          0
Q14137           0          0          0          0          0
Q14136           0          0          0          0          0
Q14135           0          0          0          0          0
Q14025           0          0          0          0          0
Q14134           0          0          0          0          0
Q14133           0          0          0          0          0
Q14132           0          0          0          0          0
Q14131           0          0          0          0          0
Q14127           0          0          0          0          0
Q14126           0          0          0          0          0
Q14125           0          0          0          0          0
Q10067           0          0          0          0          0
Q10066           0          0          0          0          0
Q10065           0          0          0          0          0
Q10064           0          0          0          0          0
Q10063           0          0          0          0          0
Q10060           0          0          0          0          0
L19253           0          0          0          0          0
L19019           0          0          0          0          0
L19252           0          0          0          0          0
L19251           0          0          0          0          0
L19250           0          0          0          0          0
L19249           0          0          0          0          0
L19248           0          0          0          0          0
K19071           0          0          0          0          0
L19018           0          0          0          0          0
L19011           0          0          0          0          0
R02002           0          0          0          0          0
R06016           0          0          0          0          0
K15124           0          0          0          0          0
K15006           0          0          0          0          0
K15112           0          0          0          0          0
K15011           0          0          0          0          0
K15010           0          0          0          0          0
K15005           0          0          0          0          0
K15004           0          0          0          0          0
K11006           0          0          0          0          0
K15003           0          0          0          0          0
K15001           0          0          0          0          0
K11003           0          0          0          0          0
K19070           0          0          0          0          0
K19067           0          0          0          0          0
K19066           0          0          0          0          0
K19012           0          0          0          0          0
K19011           0          0          0          0          0
K19010           0          0          0          0          0
K19009           0          0          0          0          0
K19008           0          0          0          0          0
K19007           0          0          0          0          0
K19006           0          0          0          0          0
K19005           0          0          0          0          0
K19004           0          0          0          0          0
K19003           0          0          0          0          0
K19002           0          0          0          0          0
K19001           0          0          0          0          0
J19002           0          0          0          0          0
K22025           0          0          0          0          0
K22004           0          0          0          0          0
K22018           0          0          0          0          0
K22017           0          0          0          0          0
K22013           0          0          0          0          0
K22010           0          0          0          0          0
K22009           0          0          0          0          0
K22005           0          0          0          0          0
L22050           0          0          0          0          0
K22003           0          0          0          0          0
K22002           0          0          0          0          0
J22044           0          0          0          0          0
K22001           0          0          0          0          0
K07026           0          0          0          0          0
K07025           0          0          0          0          0
K07022           0          0          0          0          0
K03094           0          0          0          0          0
K07020           0          0          0          0          0
K07017           0          0          0          0          0
K07016           0          0          0          0          0
K07015           0          0          0          0          0
K07005           0          0          0          0          0
K03100           0          0          0          0          0
J03012           0          0          0          0          0
K03099           0          0          0          0          0
K03097           0          0          0          0          0
K03096           0          0          0          0          0
K03095           0          0          0          0          0
K02051           0          0          0          0          0
K02050           0          0          0          0          0
K02047           0          0          0          0          0
K02046           0          0          0          0          0
J11029           0          0          0          0          0
K11021           0          0          0          0          0
J11028           0          0          0          0          0
L22051           0          0          0          0          0
L22018           0          0          0          0          0
L18124           0          0          0          0          0
P50009           0          0          0          0          0
P50006           0          0          0          0          0
J02076           0          0          0          0          0
L18128           0          0          0          0          0
L18129           0          0          0          0          0
L18127           0          0          0          0          0
L18126           0          0          0          0          0
L18125           0          0          0          0          0
L18088           0          0          0          0          0
M18228           0          0          0          0          0
M18272           0          0          0          0          0
M18018           0          0          0          0          0
M18269           0          0          0          0          0
M18267           0          0          0          0          0
M18266           0          0          0          0          0
M18265           0          0          0          0          0
M18264           0          0          0          0          0
M18263           0          0          0          0          0
M18262           0          0          0          0          0
M18261           0          0          0          0          0
M18260           0          0          0          0          0
M18259           0          0          0          0          0
M18257           0          0          0          0          0
M18256           0          0          0          0          0
M18255           0          0          0          0          0
M18254           0          0          0          0          0
M18253           0          0          0          0          0
M18252           0          0          0          0          0
M18251           0          0          0          0          0
M18250           0          0          0          0          0
M18249           0          0          0          0          0
M18245           0          0          0          0          0
M18237           0          0          0          0          0
M18236           0          0          0          0          0
M18235           0          0          0          0          0
M18234           0          0          0          0          0
M18233           0          0          0          0          0
M18010           0          0          0          0          0
M18232           0          0          0          0          0
M18230           0          0          0          0          0
M18231           0          0          0          0          0
M18229           0          0          0          0          0
M18151           0          0          0          0          0
J02099           0          0          0          0          0
J02098           0          0          0          0          0
J02097           0          0          0          0          0
J02096           0          0          0          0          0
J02095           0          0          0          0          0
J02094           0          0          0          0          0
J02093           0          0          0          0          0
J02092           0          0          0          0          0
J02091           0          0          0          0          0
J02088           0          0          0          0          0
J02089           0          0          0          0          0
J02087           0          0          0          0          0
J02081           0          0          0          0          0
J02080           0          0          0          0          0
J02071           0          0          0          0          0
J02072           0          0          0          0          0
J02070           0          0          0          0          0
J02066           0          0          0          0          0
J02065           0          0          0          0          0
J02064           0          0          0          0          0
K11024           0          0          0          0          0
K11023           0          0          0          0          0
K11022           0          0          0          0          0
K11014           0          0          0          0          0
K11013           0          0          0          0          0
K11012           0          0          0          0          0
K11011           0          0          0          0          0
K11009           0          0          0          0          0
K11010           0          0          0          0          0
K11008           0          0          0          0          0
K11007           0          0          0          0          0
K11005           0          0          0          0          0
K11004           0          0          0          0          0
M18079           0          0          0          0          0
N18180           0          0          0          0          0
M18016           0          0          0          0          0
M18013           0          0          0          0          0
M18012           0          0          0          0          0
N18183           0          0          0          0          0
M18009           0          0          0          0          0
M22135           0          0          0          0          0
M22134           0          0          0          0          0
I03060           0          0          0          0          0
I03042           0          0          0          0          0
I03059           0          0          0          0          0
I03058           0          0          0          0          0
I03053           0          0          0          0          0
I03057           0          0          0          0          0
I03049           0          0          0          0          0
I02087           0          0          0          0          0
I03003           0          0          0          0          0
I02122           0          0          0          0          0
I02119           0          0          0          0          0
I02118           0          0          0          0          0
I02117           0          0          0          0          0
I02116           0          0          0          0          0
I02115           0          0          0          0          0
I02114           0          0          0          0          0
I02104           0          0          0          0          0
I02103           0          0          0          0          0
I02102           0          0          0          0          0
I02096           0          0          0          0          0
I02095           0          0          0          0          0
I02094           0          0          0          0          0
I02093           0          0          0          0          0
I02092           0          0          0          0          0
I02091           0          0          0          0          0
I02090           0          0          0          0          0
I02089           0          0          0          0          0
I02088           0          0          0          0          0
I02007           0          0          0          0          0
N18187           0          0          0          0          0
N18184           0          0          0          0          0
N18182           0          0          0          0          0
N18181           0          0          0          0          0
N18179           0          0          0          0          0
N18003           0          0          0          0          0
N18002           0          0          0          0          0
N18001           0          0          0          0          0
N22154           0          0          0          0          0
N22146           0          0          0          0          0
N22153           0          0          0          0          0
N22151           0          0          0          0          0
N22147           0          0          0          0          0
N22135           0          0          0          0          0
N22134           0          0          0          0          0
N22120           0          0          0          0          0
N22119           0          0          0          0          0
N22112           0          0          0          0          0
N22109           0          0          0          0          0
N22108           0          0          0          0          0
N22106           0          0          0          0          0
N22105           0          0          0          0          0
N22104           0          0          0          0          0
J10009           0          0          0          0          0
J10155           0          0          0          0          0
J10008           0          0          0          0          0
J10006           0          0          0          0          0
J10005           0          0          0          0          0
N22016           0          0          0          0          0
N22004           0          0          0          0          0
N26215           0          0          0          0          0
N26214           0          0          0          0          0
N26203           0          0          0          0          0
N26202           0          0          0          0          0
N26175           0          0          0          0          0
N26174           0          0          0          0          0
N26173           0          0          0          0          0
N26172           0          0          0          0          0
N26166           0          0          0          0          0
N26165           0          0          0          0          0
N26164           0          0          0          0          0
N26151           0          0          0          0          0
N26150           0          0          0          0          0
N26149           0          0          0          0          0
S02011           0          0          0          0          0
S02010           0          0          0          0          0
S02009           0          0          0          0          0
S06001           0          0          0          0          0
S02008           0          0          0          0          0
S02007           0          0          0          0          0
S02006           0          0          0          0          0
S02005           0          0          0          0          0
S02004           0          0          0          0          0
S02003           0          0          0          0          0
S02002           0          0          0          0          0
S02001           0          0          0          0          0
O22059           0          0          0          0          0
O22057           0          0          0          0          0
O22058           0          0          0          0          0
O22056           0          0          0          0          0
Q22004           0          0          0          0          0
R22074           0          0          0          0          0
O26013           0          0          0          0          0
O26012           0          0          0          0          0
P26016           0          0          0          0          0
O26011           0          0          0          0          0
O26010           0          0          0          0          0
O26009           0          0          0          0          0
O26008           0          0          0          0          0
P26001           0          0          0          0          0
Q26016           0          0          0          0          0
R06023           0          0          0          0          0
R06022           0          0          0          0          0
R06021           0          0          0          0          0
R06020           0          0          0          0          0
R06019           0          0          0          0          0
R06018           0          0          0          0          0
R06017           0          0          0          0          0
R06010           0          0          0          0          0
R06008           0          0          0          0          0
R06009           0          0          0          0          0