;; SWMM5 .inp converted from XPSWMM .xp file
;; Generated by XPSWMM Card Reader
;; Source format: XP_CARD | Original title: (none)

[TITLE]
;;Project Title/Notes
Converted from XPSWMM .xp file

[OPTIONS]
FLOW_UNITS           CFS
INFILTRATION         HORTON
FLOW_ROUTING         DYNWAVE
LINK_OFFSETS         DEPTH
MIN_SLOPE            0.0
ALLOW_PONDING        NO
SKIP_STEADY_STATE    NO
ROUTING_STEP         00:00:10
VARIABLE_STEP        0.75
INERTIAL_DAMPING     PARTIAL
NORMAL_FLOW_LIMITED  BOTH
MAX_TRIALS           50
HEAD_TOLERANCE       .0003

[JUNCTIONS]
;;Name           Elev       MaxDepth   InitDepth  SurDepth   Aponded
;;-------------- ---------- ---------- ---------- ---------- ----------
J10050           7.00       0          0          0          0
J2016            11.60      0          0          0          0
J1152            15.00      0          0          0          0
J2011            9.00       0          0          0          0
J2137            6.67       0          0          0          0
J2136            7.00       0          0          0          0
J2135            7.00       0          0          0          0
J2134            8.00       0          0          0          0
J3134            8.00       0          0          0          0
J2130            7.00       0          0          0          0
J3130            8.00       0          0          0          0
J4130            8.00       0          0          0          0
J3133            8.00       0          0          0          0
J2133            8.00       0          0          0          0
J2122-P          15.00      0          0          0          0
J2060            7.00       0          0          0          0
M-21             7.10       0          0          0          0
J3060            14.50      0          0          0          0
PVTs             4.11       0          0          0          0
J2103            8.00       0          0          0          0
J2104            8.50       0          0          0          0
J3086            8.50       0          0          0          0
J2086            8.50       0          0          0          0
PVT-N            6.00       0          0          0          0
J2191            7.33       0          0          0          0
J3107            7.50       0          0          0          0
J2017            8.00       0          0          0          0
J4086            8.50       0          0          0          0
J2106            7.33       0          0          0          0
J4106            10.50      0          0          0          0
J3106-P          15.00      0          0          0          0
J4074            15.00      0          0          0          0
J4102            10.50      0          0          0          0
J2102            15.00      0          0          0          0
J2101            7.67       0          0          0          0
J3102            9.00       0          0          0          0
J4100            10.50      0          0          0          0
J3187-54         15.00      0          0          0          0
J4112            15.00      0          0          0          0
J2056            10.00      0          0          0          0
M-50             7.10       0          0          0          0
M-8              7.10       0          0          0          0
M-53             10.10      0          0          0          0
M-1              7.77       0          0          0          0
J2181-P          15.00      0          0          0          0
J1582-P          15.00      0          0          0          0
J2156            7.00       0          0          0          0
J4133            12.00      0          0          0          0
M14-AC2          15.00      0          0          0          0
M14-AC1          15.00      0          0          0          0
J153             6.50       0          0          0          0
J2049            15.00      0          0          0          0
J1049            15.00      0          0          0          0
J1052            7.00       0          0          0          0
J3074            10.50      0          0          0          0
J1021            15.00      0          0          0          0
J1048            11.80      0          0          0          0
J1059            6.67       0          0          0          0
J1065            6.50       0          0          0          0
J1067            4.20       0          0          0          0
J1069            5.33       0          0          0          0
J1070            4.67       0          0          0          0
J10078           6.83       0          0          0          0
J1079            6.67       0          0          0          0
J1179            6.33       0          0          0          0
J1180            6.50       0          0          0          0
J164             15.00      0          0          0          0
J2164            15.00      0          0          0          0
J1141            2.14       0          0          0          0
CGJ1021          15.00      0          0          0          0
CGJ1018          15.00      0          0          0          0
CGJ1031          15.00      0          0          0          0
CGJ2029          15.00      0          0          0          0
GJ1029           15.00      0          0          0          0
CGJ020           15.00      0          0          0          0
CGJ025           15.00      0          0          0          0
CGJ1027          15.00      0          0          0          0
MSJ3011          15.00      0          0          0          0
MSJ1001          15.00      0          0          0          0
MSJ1003          15.00      0          0          0          0
MSJ1007          15.00      0          0          0          0
WMJ3001          15.00      0          0          0          0
WMJ001           15.00      0          0          0          0
WMJ2002          15.00      0          0          0          0
WMJ4001          15.00      0          0          0          0
J1086            15.00      0          0          0          0
S940             10.30      0          0          0          0
J940             15.00      0          0          0          0
J187             15.00      0          0          0          0
J1187            15.00      0          0          0          0
J2187-60         15.00      0          0          0          0
J2187-54         15.00      0          0          0          0
J1171-54         15.00      0          0          0          0
J1171            15.00      0          0          0          0
J2176            15.00      0          0          0          0
J1176            15.00      0          0          0          0
J3176            15.00      0          0          0          0
J3112            15.00      0          0          0          0
J1112            15.00      0          0          0          0
J1062            15.00      0          0          0          0
J1044            15.00      0          0          0          0
J2044            15.00      0          0          0          0
J1056            10.00      0          0          0          0
187-54           15.00      0          0          0          0
J4190            15.00      0          0          0          0
P002             4.34       0          0          0          0
E13032(F)        3.51       0          0          0          0
E13042           3.61       0          0          0          0
E13051           4.41       0          0          0          0
E13111(F)        3.77       0          0          0          0
E13011-E         3.87       0          0          0          0
E12011-C         3.47       0          0          0          0
E12039           3.14       0          0          0          0
E12038           5.70       0          0          0          0
E12069           7.45       0          0          0          0
E12063           9.54       0          0          0          0
E12096           8.92       0          0          0          0
E12178           11.68      0          0          0          0
E12268           12.96      0          0          0          0
E12048           11.08      0          0          0          0
E11147           12.60      0          0          0          0
E11149(F)        12.40      0          0          0          0
E11153(F)        12.60      0          0          0          0
E10004           11.70      0          0          0          0
E10001.2         12.40      0          0          0          0
E10210(F)        14.50      0          0          0          0
E10032.1         8.30       0          0          0          0
E10033           9.70       0          0          0          0
E10066           10.70      0          0          0          0
E10069           9.88       0          0          0          0
E10074           10.30      0          0          0          0
E09102(F)        12.50      0          0          0          0
E09106           9.75       0          0          0          0
J1006            10.50      0          0          0          0
J1051            15.00      0          0          0          0

[STORAGE]
;;Name           Elev       MaxDepth   InitDepth  Shape      Curve/Params
;;-------------- ---------- ---------- ---------- ---------- ----------
F14277           10.38      0          0          FUNCTIONAL 12.57 0          0
E14441           5.83       0          0          FUNCTIONAL 12.57 0          0
E14462           5.58       0          0          FUNCTIONAL 12.57 0          0
E14458           4.93       0          0          FUNCTIONAL 12.57 0          0
F14238           7.69       0          0          FUNCTIONAL 12.57 0          0
F14239           8.00       0          0          FUNCTIONAL 12.57 0          0
F14244           8.98       0          0          FUNCTIONAL 12.57 0          0
F14246           11.16      0          0          FUNCTIONAL 12.57 0          0
F14269           9.00       0          0          FUNCTIONAL 12.57 0          0
F14295           8.54       0          0          FUNCTIONAL 12.57 0          0
F14304           7.00       0          0          FUNCTIONAL 12.57 0          0
F14308           5.30       0          0          FUNCTIONAL 12.57 0          0
F14309           5.63       0          0          FUNCTIONAL 12.57 0          0
F14310(F)        8.16       0          0          FUNCTIONAL 12.57 0          0
F14313           6.71       0          0          FUNCTIONAL 12.57 0          0
F14318           5.39       0          0          FUNCTIONAL 12.57 0          0
F14321           4.39       0          0          FUNCTIONAL 12.57 0          0
F14341           10.49      0          0          FUNCTIONAL 12.57 0          0
F14379           11.00      0          0          FUNCTIONAL 12.57 0          0
F14386           12.80      0          0          FUNCTIONAL 12.57 0          0
F14378(F)        10.00      0          0          FUNCTIONAL 12.57 0          0
J186             6.33       0          0          FUNCTIONAL 10.00 0          0
S186             10.00      0          0          FUNCTIONAL 0 0          0
H12280           6.71       0          0          FUNCTIONAL 12.57 0          0
H12345           7.00       0          0          FUNCTIONAL 12.57 0          0
J76              1.40       0          0          FUNCTIONAL 10.00 0          0
S76              8.60       0          0          FUNCTIONAL 0 0          0
G11198           10.60      0          0          FUNCTIONAL 12.57 0          0
G11203           10.00      0          0          FUNCTIONAL 12.57 0          0
G11232           12.05      0          0          FUNCTIONAL 12.57 0          0
G11235           10.60      0          0          FUNCTIONAL 12.57 0          0
G11238           11.35      0          0          FUNCTIONAL 12.57 0          0
G11239           10.80      0          0          FUNCTIONAL 12.57 0          0
G12074           9.10       0          0          FUNCTIONAL 12.57 0          0
G12089           8.50       0          0          FUNCTIONAL 12.57 0          0
G12173           7.00       0          0          FUNCTIONAL 12.57 0          0
G13019           6.00       0          0          FUNCTIONAL 12.57 0          0
H12081           8.75       0          0          FUNCTIONAL 12.57 0          0
H12083           8.46       0          0          FUNCTIONAL 12.57 0          0
S72              10.00      0          0          FUNCTIONAL 0 0          0
J85              4.26       0          0          FUNCTIONAL 10.00 0          0
S85              10.00      0          0          FUNCTIONAL 0 0          0
G13010           4.76       0          0          FUNCTIONAL 12.57 0          0
G13053           3.45       0          0          FUNCTIONAL 12.57 0          0
G13083           6.65       0          0          FUNCTIONAL 12.57 0          0
G13098           4.68       0          0          FUNCTIONAL 12.57 0          0
G13115           6.80       0          0          FUNCTIONAL 12.57 0          0
H13146           7.20       0          0          FUNCTIONAL 12.57 0          0
H13157           5.00       0          0          FUNCTIONAL 12.57 0          0
H13183           4.60       0          0          FUNCTIONAL 12.57 0          0
G14SP1U          5.09       0          0          FUNCTIONAL 12.57 0          0
H13186(F)        3.90       0          0          FUNCTIONAL 12.57 0          0
G13085(F)        7.00       0          0          FUNCTIONAL 12.57 0          0
G13068(F)        3.50       0          0          FUNCTIONAL 12.57 0          0
G14024           4.00       0          0          FUNCTIONAL 12.57 0          0
F14010           4.50       0          0          FUNCTIONAL 12.57 0          0
G13119(F)        6.00       0          0          FUNCTIONAL 12.57 0          0
G13127           6.30       0          0          FUNCTIONAL 12.57 0          0
G13126           5.40       0          0          FUNCTIONAL 12.57 0          0
G13124           6.00       0          0          FUNCTIONAL 12.57 0          0
G13121           6.00       0          0          FUNCTIONAL 12.57 0          0
J54              6.10       0          0          FUNCTIONAL 10.00 0          0
S54              10.00      0          0          FUNCTIONAL 0 0          0
J45              2.00       0          0          FUNCTIONAL 10.00 0          0
S45              4.80       0          0          FUNCTIONAL 0 0          0
J75              8.01       0          0          FUNCTIONAL 10.00 0          0
S75              10.00      0          0          FUNCTIONAL 0 0          0
G13093           10.00      0          0          FUNCTIONAL 12.57 0          0
F13851           7.50       0          0          FUNCTIONAL 12.57 0          0
F13856           11.00      0          0          FUNCTIONAL 12.57 0          0
J2007            11.14      0          0          FUNCTIONAL 12.57 0          0
S7               10.00      0          0          FUNCTIONAL 0 0          0
F14012(F)        7.00       0          0          FUNCTIONAL 12.57 0          0
J15172           9.12       0          0          FUNCTIONAL 12.57 0          0
J16183           9.79       0          0          FUNCTIONAL 12.57 0          0
J16273           14.43      0          0          FUNCTIONAL 12.57 0          0
F14004           10.00      0          0          FUNCTIONAL 12.57 0          0
F14075           4.40       0          0          FUNCTIONAL 12.57 0          0
F14106           3.69       0          0          FUNCTIONAL 12.57 0          0
F14107           3.65       0          0          FUNCTIONAL 12.57 0          0
F14112           5.70       0          0          FUNCTIONAL 12.57 0          0
F14116           5.86       0          0          FUNCTIONAL 12.57 0          0
F14118           4.56       0          0          FUNCTIONAL 12.57 0          0
F14145           5.04       0          0          FUNCTIONAL 12.57 0          0
F14153           4.77       0          0          FUNCTIONAL 12.57 0          0
F15031           11.47      0          0          FUNCTIONAL 12.57 0          0
F15034           11.99      0          0          FUNCTIONAL 12.57 0          0
F15076           10.00      0          0          FUNCTIONAL 12.57 0          0
F15077           10.00      0          0          FUNCTIONAL 12.57 0          0
F15078           12.84      0          0          FUNCTIONAL 12.57 0          0
F15130           11.06      0          0          FUNCTIONAL 12.57 0          0
F15376           15.56      0          0          FUNCTIONAL 12.57 0          0
F15752           7.23       0          0          FUNCTIONAL 12.57 0          0
F15812           6.41       0          0          FUNCTIONAL 12.57 0          0
F15837           4.59       0          0          FUNCTIONAL 12.57 0          0
F16614           10.00      0          0          FUNCTIONAL 12.57 0          0
G15081           12.30      0          0          FUNCTIONAL 12.57 0          0
G15082           12.46      0          0          FUNCTIONAL 12.57 0          0
G15187           11.22      0          0          FUNCTIONAL 12.57 0          0
G15257           10.18      0          0          FUNCTIONAL 12.57 0          0
G15284           12.11      0          0          FUNCTIONAL 12.57 0          0
G15435           11.21      0          0          FUNCTIONAL 12.57 0          0
G15443           10.03      0          0          FUNCTIONAL 12.57 0          0
G15351           10.93      0          0          FUNCTIONAL 12.57 0          0
G16087           13.23      0          0          FUNCTIONAL 12.57 0          0
G16464           13.59      0          0          FUNCTIONAL 12.57 0          0
G16514           10.39      0          0          FUNCTIONAL 12.57 0          0
G16520           10.18      0          0          FUNCTIONAL 12.57 0          0
G16528           12.00      0          0          FUNCTIONAL 12.57 0          0
H15431           12.49      0          0          FUNCTIONAL 12.57 0          0
H15557           10.94      0          0          FUNCTIONAL 12.57 0          0
H15558           11.87      0          0          FUNCTIONAL 12.57 0          0
H15559           10.85      0          0          FUNCTIONAL 12.57 0          0
H15563           15.77      0          0          FUNCTIONAL 12.57 0          0
H15568           13.50      0          0          FUNCTIONAL 12.57 0          0
H16001           8.22       0          0          FUNCTIONAL 12.57 0          0
H16281           10.80      0          0          FUNCTIONAL 12.57 0          0
H16288           11.77      0          0          FUNCTIONAL 12.57 0          0
H16306           12.09      0          0          FUNCTIONAL 12.57 0          0
H16308           11.85      0          0          FUNCTIONAL 12.57 0          0
H16394           15.20      0          0          FUNCTIONAL 12.57 0          0
H16396           13.47      0          0          FUNCTIONAL 12.57 0          0
F14078(F)        5.00       0          0          FUNCTIONAL 12.57 0          0
G15261           10.00      0          0          FUNCTIONAL 12.57 0          0
G15334(F)        10.00      0          0          FUNCTIONAL 12.57 0          0
G15186           10.00      0          0          FUNCTIONAL 12.57 0          0
G15185(F)        10.00      0          0          FUNCTIONAL 12.57 0          0
G15184(F)        10.00      0          0          FUNCTIONAL 12.57 0          0
G16518(F)        10.00      0          0          FUNCTIONAL 12.57 0          0
G16467(F)        15.00      0          0          FUNCTIONAL 12.57 0          0
F15817(F)        10.00      0          0          FUNCTIONAL 12.57 0          0
F15834(F)        10.00      0          0          FUNCTIONAL 12.57 0          0
S16              10.00      0          0          FUNCTIONAL 0 0          0
J66              2.03       0          0          FUNCTIONAL 12.57 0          0
S66              10.00      0          0          FUNCTIONAL 0 0          0
J1009.1          15.00      0          0          FUNCTIONAL 10.00 0          0
S9               7.60       0          0          FUNCTIONAL 0 0          0
S152             10.00      0          0          FUNCTIONAL 0 0          0
J68              7.96       0          0          FUNCTIONAL 10.00 0          0
S68              10.00      0          0          FUNCTIONAL 0 0          0
J67              4.03       0          0          FUNCTIONAL 10.00 0          0
S67              10.00      0          0          FUNCTIONAL 0 0          0
H16415           10.00      0          0          FUNCTIONAL 12.57 0          0
S65              10.00      0          0          FUNCTIONAL 0 0          0
J64              -3.97      0          0          FUNCTIONAL 2.00 0          0
S64              10.00      0          0          FUNCTIONAL 0 0          0
J59              10.00      0          0          FUNCTIONAL 10.00 0          0
S59              10.00      0          0          FUNCTIONAL 0 0          0
S50              10.00      0          0          FUNCTIONAL 0 0          0
J2004            10.00      0          0          FUNCTIONAL 12.57 0          0
S4               10.00      0          0          FUNCTIONAL 0 0          0
J61              2.15       0          0          FUNCTIONAL 10.00 0          0
S61              10.00      0          0          FUNCTIONAL 0 0          0
J156             6.50       0          0          FUNCTIONAL 10.00 0          0
S156             10.00      0          0          FUNCTIONAL 0 0          0
J2008            7.67       0          0          FUNCTIONAL 10.00 0          0
S8               10.00      0          0          FUNCTIONAL 0 0          0
H16428           10.00      0          0          FUNCTIONAL 12.57 0          0
H16426           10.00      0          0          FUNCTIONAL 12.57 0          0
H16417           10.00      0          0          FUNCTIONAL 12.57 0          0
H16506           15.00      0          0          FUNCTIONAL 12.57 0          0
G16470           13.00      0          0          FUNCTIONAL 12.57 0          0
J17073           14.00      0          0          FUNCTIONAL 12.57 0          0
J17085           11.43      0          0          FUNCTIONAL 12.57 0          0
J17140           11.42      0          0          FUNCTIONAL 12.57 0          0
J17150           11.91      0          0          FUNCTIONAL 12.57 0          0
J17239           11.40      0          0          FUNCTIONAL 12.57 0          0
K16003           12.20      0          0          FUNCTIONAL 12.57 0          0
K16034           17.53      0          0          FUNCTIONAL 12.57 0          0
K17035           16.58      0          0          FUNCTIONAL 12.57 0          0
K17071           15.79      0          0          FUNCTIONAL 12.57 0          0
S11              10.00      0          0          FUNCTIONAL 0 0          0
J32              2.36       0          0          FUNCTIONAL 10.00 0          0
S32              10.00      0          0          FUNCTIONAL 0 0          0
J33              -0.54      0          0          FUNCTIONAL 10.00 0          0
S33              10.00      0          0          FUNCTIONAL 0 0          0
J34              1.56       0          0          FUNCTIONAL 10.00 0          0
S34              10.00      0          0          FUNCTIONAL 0 0          0
H15263           10.00      0          0          FUNCTIONAL 12.57 0          0
S137             10.00      0          0          FUNCTIONAL 28.00 0          0
J137             6.33       0          0          FUNCTIONAL 10.00 0          0
J136             6.66       0          0          FUNCTIONAL 10.00 0          0
J2146            7.00       0          0          FUNCTIONAL 10.00 0          0
S136             10.00      0          0          FUNCTIONAL 28.00 0          0
S146             10.00      0          0          FUNCTIONAL 28.00 0          0
J146             6.41       0          0          FUNCTIONAL 10.00 0          0
S135             4.80       0          0          FUNCTIONAL 28.00 0          0
J135             6.33       0          0          FUNCTIONAL 10.00 0          0
S138             4.40       0          0          FUNCTIONAL 28.00 0          0
J138             6.33       0          0          FUNCTIONAL 10.00 0          0
S134             10.00      0          0          FUNCTIONAL 28.00 0          0
J134             6.33       0          0          FUNCTIONAL 10.00 0          0
S131             3.70       0          0          FUNCTIONAL 28.00 0          0
J131             6.33       0          0          FUNCTIONAL 10.00 0          0
S130             8.10       0          0          FUNCTIONAL 28.00 0          0
J130             6.66       0          0          FUNCTIONAL 10.00 0          0
S132             5.00       0          0          FUNCTIONAL 28.00 0          0
J132             3.33       0          0          FUNCTIONAL 10.00 0          0
J133             6.33       0          0          FUNCTIONAL 10.00 0          0
S122             5.90       0          0          FUNCTIONAL 28.00 0          0
J122             15.00      0          0          FUNCTIONAL 10.00 0          0
S60              10.00      0          0          FUNCTIONAL 28.00 0          0
J60              6.50       0          0          FUNCTIONAL 10.00 0          0
S133             10.00      0          0          FUNCTIONAL 28.00 0          0
J1001            13.00      0          0          FUNCTIONAL 10.00 0          0
J3001            13.00      0          0          FUNCTIONAL 10.00 0          0
J2170            14.00      0          0          FUNCTIONAL 10.00 0          0
J1.4             1.00       0          0          FUNCTIONAL 10.00 0          0
J1               13.00      0          0          FUNCTIONAL 10.00 0          0
S001             7.07       -0.07      0          FUNCTIONAL 1680.00 0          0
F14001           3.64       0          0          FUNCTIONAL 12.57 0          0
F14002           3.65       0          0          FUNCTIONAL 12.57 0          0
F14003.1-F       3.91       0          0          FUNCTIONAL 12.57 0          0
F14003.2         3.44       0          0          FUNCTIONAL 12.57 0          0
F14008           8.50       0          0          FUNCTIONAL 12.57 0          0
F14158           4.11       0          0          FUNCTIONAL 12.57 0          0
F14JB1           5.00       0          0          FUNCTIONAL 12.57 0          0
F14JB2           3.64       0          0          FUNCTIONAL 12.57 0          0
F14160(F)        4.00       0          0          FUNCTIONAL 12.57 0          0
F14280(F)        4.00       0          0          FUNCTIONAL 12.57 0          0
S2-U/S           3.00       0          0          FUNCTIONAL 12.57 0          0
S2-D/S           3.00       0          0          FUNCTIONAL 12.57 0          0
J1.7             1.61       0          0          FUNCTIONAL 10.00 0          0
J1.2             1.63       0          0          FUNCTIONAL 10.00 0          0
J1.1             0.41       0          0          FUNCTIONAL 10.00 0          0
G001             7.00       0          0          FUNCTIONAL 12.57 0          0
E09004           7.46       0          0          FUNCTIONAL 12.57 0          0
E10001.3         10.00      0          0          FUNCTIONAL 12.57 0          0
E10006           17.03      0          0          FUNCTIONAL 12.57 0          0
E10031           16.96      0          0          FUNCTIONAL 12.57 0          0
E10032.2         15.94      0          0          FUNCTIONAL 12.57 0          0
E10034.2         14.72      0          0          FUNCTIONAL 12.57 0          0
E10035           14.60      0          0          FUNCTIONAL 12.57 0          0
E10042           19.14      0          0          FUNCTIONAL 12.57 0          0
E10051           10.00      0          0          FUNCTIONAL 12.57 0          0
E10057.2         11.43      0          0          FUNCTIONAL 12.57 0          0
E10145           10.00      0          0          FUNCTIONAL 12.57 0          0
E11011           10.00      0          0          FUNCTIONAL 12.57 0          0
E12184           12.90      0          0          FUNCTIONAL 12.57 0          0
E12186           13.50      0          0          FUNCTIONAL 12.57 0          0
E13003(F)        4.12       0          0          FUNCTIONAL 12.57 0          0
E13010           9.60       0          0          FUNCTIONAL 12.57 0          0
E14480           9.80       0          0          FUNCTIONAL 12.57 0          0
S2-1             9.30       0          0          FUNCTIONAL 0 0          0
F10002           10.00      0          0          FUNCTIONAL 12.57 0          0
F10004           10.00      0          0          FUNCTIONAL 12.57 0          0
F10079           10.00      0          0          FUNCTIONAL 12.57 0          0
F10103           11.60      0          0          FUNCTIONAL 12.57 0          0
F10124           11.36      0          0          FUNCTIONAL 12.57 0          0
F10127           12.11      0          0          FUNCTIONAL 12.57 0          0
F10136           12.00      0          0          FUNCTIONAL 12.57 0          0
F10137           13.95      0          0          FUNCTIONAL 12.57 0          0
F12037           11.00      0          0          FUNCTIONAL 12.57 0          0
F12322           14.20      0          0          FUNCTIONAL 12.57 0          0
F12502           13.48      0          0          FUNCTIONAL 12.57 0          0
F12545           14.74      0          0          FUNCTIONAL 12.57 0          0
F12563           16.81      0          0          FUNCTIONAL 12.57 0          0
F12565           17.03      0          0          FUNCTIONAL 12.57 0          0
F12587           11.36      0          0          FUNCTIONAL 12.57 0          0