;; SWMM5 .inp converted from XPSWMM .xp file
;; Generated by XPSWMM Card Reader
;; Source format: XP_CARD | Original title: (none)

[TITLE]
;;Project Title/Notes
Converted from XPSWMM .xp file

[OPTIONS]
FLOW_UNITS           CMS
INFILTRATION         HORTON
FLOW_ROUTING         DYNWAVE
LINK_OFFSETS         DEPTH
MIN_SLOPE            0.0
ALLOW_PONDING        NO
SKIP_STEADY_STATE    NO
ROUTING_STEP         00:00:60
VARIABLE_STEP        0.75
INERTIAL_DAMPING     PARTIAL
NORMAL_FLOW_LIMITED  BOTH
MAX_TRIALS           500
HEAD_TOLERANCE       .001

[JUNCTIONS]
;;Name           Elev       MaxDepth   InitDepth  SurDepth   Aponded
;;-------------- ---------- ---------- ---------- ---------- ----------
0                116.42     0          0          0          0
0                115.12     0          0          0          0
0                124.04     0          0          0          0
0                126.73     0          0          0          0
0                127.40     0          0          0          0
0                114.24     0          0          0          0
0                123.00     0          0          0          0
0                128.66     0          0          0          0
0                120.99     0          0          0          0
0                119.48     0          0          0          0
0                120.62     0          0          0          0
0                97.44      0          0          0          0
0                62.49      0          0          0          0
0                68.66      0          0          0          0
0                62.41      0          0          0          0
0                94.65      0          0          0          0
0                68.27      0          0          0          0
0                64.97      0          0          0          0
0                64.26      0          0          0          0
0                67.75      0          0          0          0
0                4.78       0          0          0          0
0                125.29     0          0.47       0          0
0                63.87      0          0.43       0          0
0                118.98     0          0          0          0
0                118.52     0          0          0          0
0                118.69     0          0          0          0
0                140.88     0          0          0          0
0                144.43     0          0          0          0
0                152.44     0          0          0          0
0                149.41     0          0          0          0
0                141.92     0          0          0          0
0                146.79     0          0          0          0
0                151.49     0          0          0          0
0                42.14      0          0          0          0
0                42.20      0          0          0          0
0                50.58      0          0          0          0
0                37.52      0          0          0          0
0                40.92      0          0          0          0
0                35.64      0          0          0          0
0                45.61      0          0          0          0
0                72.97      0          0          0          0
0                47.00      0          0          0          0
0                56.02      0          0          0          0
0                61.44      0          0          0          0
0                50.21      0          0          0          0
0                51.21      0          0          0          0
0                46.00      0          0          0          0
0                41.02      0          0          0          0
0                74.40      0          0          0          0
0                66.55      0          0          0          0
0                83.89      0          0          0          0
0                78.22      0          0          0          0
0                69.97      0          0          0          0
0                64.36      0          0          0          0
0                64.26      0          0          0          0
0                64.50      0          0          0          0
0                102.08     0          0          0          0
0                120.07     0          0          0          0
0                61.73      0          0          0          0
0                171.92     0          0          0          0
0                214.77     0          0          0          0
0                212.14     0          0          0          0
0                201.34     0          0          0          0
0                196.38     0          0          0          0
0                183.02     0          0          0          0
0                183.16     0          0          0          0
0                206.79     0          0          0          0
0                207.60     0          0          0          0
0                203.38     0          0          0          0
0                199.35     0          0          0          0
0                191.44     0          0          0          0
0                187.12     0          0          0          0
0                159.09     0          0          0          0
0                166.50     0          0          0          0
0                158.00     0          0          0          0
0                34.96      0          0          0          0
0                31.09      0          0          0          0
0                44.96      0          0          0          0
0                33.29      0          0          0          0
0                139.64     0          0          0          0
0                67.08      0          0          0          0
0                68.24      0          0          0          0
0                63.93      0          0          0          0
0                56.45      0          0          0          0
0                63.00      0          0          0          0
0                60.38      0          0          0          0
0                64.22      0          0          0          0
0                60.30      0          0          0          0
0                64.85      0          0          0          0
0                71.65      0          0          0          0
0                90.44      0          0.22       0          0
0                51.25      0          0          0          0
0                46.99      0          0          0          0
0                44.40      0          0          0          0
0                164.12     0          0          0          0
0                123.54     0          0          0          0
0                90.15      0          0          0          0
0                89.85      0          0          0          0
0                90.63      0          0          0          0
0                118.44     0          0          0          0
0                89.86      0          0          0          0
0                91.19      0          0          0          0
0                89.18      0          0          0          0
0                90.73      0          0          0          0
0                119.74     0          0          0          0
0                89.77      0          0          0          0
0                35.96      0          0          0          0
0                42.47      0          0          0          0
0                38.83      0          0          0          0
0                120.70     0          0          0          0
0                89.21      0          0          0          0
0                28.60      0          0          0          0
0                127.27     0          0          0          0
0                151.44     0          0          0          0
0                157.21     0          0          0          0
0                136.64     0          0          0          0
0                148.48     0          0          0          0
0                137.84     0          0          0          0
0                144.45     0          0          0          0
0                158.02     0          0          0          0
0                139.03     0          0          0          0
0                159.29     0          0          0          0
0                141.59     0          0          0          0
0                151.37     0          0          0          0
0                142.07     0          0          0          0
0                135.45     0          0          0          0
0                157.83     0          0          0          0
0                136.61     0          0          0          0
0                137.55     0          0          0          0
0                164.09     0          0          0          0
0                143.32     0          0          0          0
0                131.95     0          0          0          0
0                140.44     0          0          0          0
0                152.69     0          0          0          0
0                146.19     0          0          0          0
0                121.51     0          0          0          0
0                148.76     0          0          0          0
0                121.46     0          0          0          0
0                135.36     0          0          0          0
0                144.15     0          0          0          0
0                141.87     0          0          0          0
0                150.57     0          0          0          0
0                76.08      0          0          0          0
0                88.79      0          0          0          0
0                89.34      0          0          0          0
0                118.50     0          0          0          0
0                89.96      0          0          0          0
0                69.34      0          0          0          0
0                90.34      0          0          0          0
0                90.48      0          0          0          0
0                90.67      0          0          0          0
0                100.09     0          0          0          0
0                109.05     0          0          0          0
0                53.50      0          0          0          0
0                155.26     0          0          0          0
0                165.89     0          0          0          0
0                117.17     0          0          0          0
0                26.12      0          0          0          0
0                170.80     0          0          0          0
0                28.33      0          0          0          0
0                28.66      0          0          0          0
0                50.05      0          0          0          0
0                40.95      0          0          0          0
0                49.32      0          0          0          0
0                92.72      0          0          0          0
0                91.73      0          0          0          0
0                90.79      0          0          0          0
0                46.86      0          0          0          0
0                43.40      0          0          0          0
0                108.75     0          0          0          0
0                113.95     0          0          0          0
0                94.60      0          0          0          0
0                93.72      0          0          0          0
0                100.24     0          0          0          0
0                110.83     0          0          0          0
0                41.18      0          0          0          0
0                48.70      0          0          0          0
0                50.77      0          0          0          0
0                125.58     0          0          0          0
0                121.90     0          0          0          0
0                130.97     0          0          0          0
0                144.45     0          0          0          0
0                139.72     0          0          0          0
0                134.96     0          0          0          0
0                137.51     0          0          0          0
0                121.71     0          0          0          0
0                146.19     0          0          0          0
0                121.75     0          0          0          0
0                135.27     0          0          0          0
0                122.28     0          0          0          0
0                121.13     0          0          0          0
0                121.37     0          0          0          0
0                162.64     0          0          0          0
0                40.68      0          0          0          0
0                46.19      0          0          0          0
0                167.81     0          0          0          0
0                153.40     0          0          0          0
0                153.47     0          0.27       0          0
0                170.43     0          0          0          0
0                154.68     0          0          0          0
0                151.01     0          0          0          0
0                179.95     0          0          0          0
0                150.59     0          0          0          0
0                41.08      0          0          0          0
0                179.47     0          0          0          0
0                161.93     0          0          0          0
0                166.49     0          0          0          0
0                153.21     0          0          0          0
0                156.62     0          0          0          0
0                160.68     0          0          0          0
0                164.27     0          0          0          0
0                165.94     0          0          0          0
0                158.83     0          0          0          0
0                158.28     0          0          0          0
0                49.62      0          0          0          0
0                46.93      0          0          0          0
0                57.04      0          0          0          0
0                131.33     0          0          0          0
0                62.04      0          0          0          0
0                30.23      0          0          0          0
0                24.76      0          0          0          0
0                27.71      0          0          0          0
0                28.29      0          0          0          0
0                29.39      0          0          0          0
0                115.20     0          0          0          0
0                117.07     0          0          0          0
0                117.55     0          0          0          0
0                51.20      0          0          0          0
0                22.87      0          0          0          0
0                35.40      0          0          0          0
0                33.08      0          0          0          0
0                35.28      0          0          0          0
0                23.01      0          0          0          0
0                126.80     0          0          0          0
0                133.65     0          0          0          0
0                58.22      0          0          0          0
0                128.00     0          0          0          0
0                125.33     0          0          0          0
0                109.33     0          0          0          0
0                113.75     0          0          0          0
0                110.11     0          0          0          0
0                113.26     0          0          0          0
0                72.62      0          0          0          0
0                200.38     0          0          0          0
0                181.06     0          0          0          0
0                198.18     0          0          0          0
0                120.44     0          0          0          0
0                124.13     0          0          0          0
0                122.16     0          0          0          0
0                117.83     0          0          0          0
0                27.58      0          0          0          0
0                188.84     0          0          0          0
0                92.72      0          0          0          0
0                92.13      0          0          0          0
0                18.42      0          0          0          0
0                93.90      0          0          0          0
0                93.87      0          0.72       0          0
0                52.70      0          0          0          0
0                73.08      0          0          0          0
0                71.83      0          0          0          0
0                69.09      0          0          0          0
0                111.43     0          0          0          0
0                108.12     0          0          0          0
0                107.24     0          0          0          0
0                107.91     0          0          0          0
0                110.03     0          0          0          0
0                112.33     0          0          0          0
0                113.72     0          0          0          0
0                116.45     0          0          0          0
0                119.08     0          0          0          0
0                121.17     0          0          0          0
0                111.69     0          0          0          0
0                26.60      0          0          0          0
0                24.86      0          0          0          0
0                62.96      0          0          0          0
0                133.11     0          0          0          0
0                132.17     0          0          0          0
0                135.63     0          0          0          0
0                138.20     0          0          0          0
0                157.83     0          0          0          0
0                136.99     0          0          0          0
0                148.15     0          0          0          0
0                61.35      0          0          0          0
0                61.35      0          0          0          0
0                74.41      0          0          0          0
0                72.33      0          0          0          0
0                71.89      0          0          0          0
0                88.95      0          0          0          0
0                147.22     0          0          0          0
0                149.27     0          0          0          0
0                147.01     0          0          0          0
0                143.76     0          0          0          0
0                145.79     0          0          0          0
0                152.00     0          0          0          0
0                53.78      0          0          0          0
0                150.43     0          0          0          0
0                50.60      0          0          0          0
0                51.75      0          0          0          0
0                55.87      0          0          0          0
0                51.63      0          0          0          0
0                50.19      0          0          0          0
0                143.43     0          0          0          0
0                140.00     0          0          0          0
0                134.82     0          0          0          0
0                73.05      0          0          0          0
0                70.30      0          0          0          0
0                68.28      0          0          0          0
0                79.42      0          0          0          0
0                74.70      0          0          0          0
0                117.99     0          0          0          0
0                118.55     0          0          0          0
0                118.89     0          0          0          0
0                79.38      0          0          0          0
0                83.76      0          0          0          0
0                84.90      0          0          0          0
0                131.63     0          0          0          0
0                111.03     0          0          0          0
0                113.08     0          0          0          0
0                172.99     0          0          0          0
0                132.11     0          0          0          0
0                201.68     0          0          0          0
0                205.09     0          0          0          0
0                162.35     0          0          0          0
0                33.38      0          0          0          0
0                106.68     0          0          0          0
0                105.39     0          0          0          0
0                122.06     0          0          0          0
0                128.71     0          0          0          0
0                107.52     0          0          0          0
0                107.03     0          0          0          0
0                32.28      0          0          0          0
0                28.35      0          0          0          0
0                40.23      0          0          0          0
0                51.19      0          0          0          0
0                53.00      0          0          0          0
0                54.52      0          0          0          0
0                79.10      0          0          0          0
0                86.64      0          0          0          0
0                90.21      0          0          0          0
0                88.99      0          0          0          0
0                90.68      0          0          0          0
0                88.26      0          0          0          0
0                88.19      0          0          0          0
0                62.69      0          0          0          0
0                58.98      0          0          0          0
0                59.14      0          0          0          0
0                74.92      0          0          0          0
0                72.92      0          0          0          0
0                81.95      0          0          0          0
0                78.54      0          0          0          0
0                84.50      0          0          0          0
0                85.41      0          0          0          0
0                82.48      0          0          0          0
0                85.42      0          0          0          0
0                77.60      0          0          0          0
0                83.60      0          0          0          0
0                84.73      0          0          0          0
0                76.12      0          0          0          0
0                75.63      0          0          0          0
0                79.73      0          0          0          0
0                66.57      0          0          0          0
0                72.24      0          0          0          0
0                76.74      0          0          0          0
0                65.19      0          0          0          0
0                72.21      0          0          0          0
0                76.35      0          0          0          0
0                73.66      0          0          0          0
0                76.39      0          0          0          0
0                91.57      0          0          0          0
0                99.52      0          0          0          0
0                93.44      0          0          0          0
0                129.83     0          0          0          0
0                132.37     0          0          0          0
0                132.12     0          0          0          0
0                116.59     0          0          0          0
0                115.58     0          0          0          0
0                119.64     0          0          0          0
0                122.88     0          0          0          0
0                115.69     0          0          0          0
0                138.44     0          0          0          0
0                126.75     0          0          0          0
0                134.10     0          0          0          0
0                77.94      0          0          0          0
0                73.53      0          0          0          0
0                127.70     0          0          0          0
0                134.20     0          0          0          0
0                135.72     0          0          0          0
0                129.01     0          0          0          0
0                141.00     0          0          0          0
0                133.39     0          0          0          0
0                138.24     0          0          0          0
0                131.47     0          0          0          0
0                137.90     0          0          0          0
0                136.78     0          0          0          0
0                66.41      0          0          0          0
0                66.95      0          0          0          0
0                145.43     0          0          0          0
0                147.04     0          0          0          0
0                144.56     0          0          0          0
0                137.89     0          0          0          0
0                135.58     0          0          0          0
0                139.05     0          0          0          0
0                41.13      0          0          0          0
0                135.61     0          0          0          0
0                135.30     0          0          0          0
0                140.92     0          0          0          0
0                39.79      0          0.96       0          0
0                39.23      0          0.43       0          0
0                167.10     0          0          0          0
0                155.71     0          0          0          0
0                154.83     0          0          0          0
0                182.60     0          0          0          0
0                159.14     0          0          0          0
0                82.95      0          0          0          0
0                120.72     0          0          0          0
0                123.58     0          0          0          0
0                115.87     0          0          0          0
0                137.15     0          0          0          0
0                114.90     0          0          0          0
0                123.55     0          0          0          0
0                59.34      0          0          0          0
0                76.76      0          0          0          0
0                72.71      0          0          0          0
0                122.45     0          0          0          0
0                127.73     0          0          0          0
0                126.44     0          0          0          0
0                88.26      0          0          0          0
0                153.87     0          0          0          0
0                153.42     0          0          0          0
0                153.11     0          0          0          0
0                155.45     0          0          0          0
0                174.82     0          0          0          0
0                177.95     0          0          0          0
0                181.24     0          0          0          0
0                159.30     0          0          0          0
0                159.57     0          0          0          0
0                161.12     0          0          0          0
0                26.14      0          0          0          0
0                118.45     0          0          0          0
0                119.20     0          0          0          0
0                35.49      0          0          0          0
0                29.28      0          0          0          0
0                119.25     0          0          0          0
0                132.86     0          0          0          0
0                126.18     0          0          0          0
0                60.00      0          0          0          0
0                56.94      0          0          0          0
0                60.00      0          0          0          0
0                194.93     0          0          0          0
0                169.41     0          0          0          0
0                192.10     0          0          0          0
0                183.46     0          0          0          0
0                193.92     0          0          0          0
0                189.06     0          0          0          0
0                186.32     0          0          0          0
0                199.28     0          0          0          0
0                193.64     0          0          0          0
0                188.05     0          0          0          0
0                182.39     0          0          0          0
0                38.93      0          0          0          0
0                114.15     0          0          0          0
0                193.42     0          0          0          0
0                41.30      0          0          0          0
0                127.02     0          0          0          0
0                102.70     0          0          0          0