;; SWMM5 .inp converted from XPSWMM .xp file
;; Generated by XPSWMM Card Reader
;; Source format: XP_CARD | Original title: DALLAS WATER UTILITIES - WC.EC.PC.HC.FM

[TITLE]
;;Project Title/Notes
DALLAS WATER UTILITIES - WC.EC.PC.HC.FM

[OPTIONS]
FLOW_UNITS           CFS
INFILTRATION         HORTON
FLOW_ROUTING         DYNWAVE
LINK_OFFSETS         DEPTH
MIN_SLOPE            0.0
ALLOW_PONDING        NO
SKIP_STEADY_STATE    NO
ROUTING_STEP         00:00:60
VARIABLE_STEP        0.75
INERTIAL_DAMPING     PARTIAL
NORMAL_FLOW_LIMITED  BOTH
MAX_TRIALS           50

[JUNCTIONS]
;;Name           Elev       MaxDepth   InitDepth  SurDepth   Aponded
;;-------------- ---------- ---------- ---------- ---------- ----------
SS0002           400.00     0          0          0          0
SS0001           405.00     0          0          0          0
SS0003           407.00     0          0          0          0
SS0161           405.00     0          0          0          0
SS0005           406.00     0          0          0          0
SS0006           408.00     0          0          0          0
SS0007           419.00     0          0          0          0
SS0008           419.00     0          0          0          0
SS0009           424.00     0          0          0          0
SS0010           415.00     0          0          0          0
SS0011           415.00     0          0          0          0
SS0012           403.00     0          0          0          0
SS0013           403.00     0          0          0          0
SS0014           421.00     0          0          0          0
SS0173           820.00     0          0          0          0
SS0015           401.00     0          0          0          0
SS0016           401.00     0          0          0          0
SS0017           402.00     0          0          0          0
SS0018           402.50     0          0          0          0
SS0019           402.00     0          0          0          0
SS0020           405.00     0          0          0          0
SSA021           412.00     0          0          0          0
SS0021           412.00     0          0          0          0
SS0181           410.50     0          0          0          0
SS0022           403.00     0          0          0          0
SS0023           404.00     0          0          0          0
SS0024           424.00     0          0          0          0
SS0025           416.00     0          0          0          0
SS0026           438.00     0          0          0          0
SS0027           405.00     0          0          0          0
SS0028           405.00     0          0          0          0
SS0029           406.00     0          0          0          0
SS0030           405.00     0          0          0          0
SS0031           404.00     0          0          0          0
SS0032           400.00     0          0          0          0
SS0033           390.00     0          0          0          0
SS0034           391.00     0          0          0          0
SS0035           393.00     0          0          0          0
SS0036           393.00     0          0          0          0
SS0037           397.00     0          0          0          0
SS0038           400.00     0          0          0          0
SS0039           398.00     0          0          0          0
SS0040           402.00     0          0          0          0
SS0041           402.50     0          0          0          0
SS0042           404.00     0          0          0          0
SS0043           405.00     0          0          0          0
SS0044           420.00     0          0          0          0
SS0045           420.00     0          0          0          0
SS0046           412.00     0          0          0          0
SS0047           413.00     0          0          0          0
SS0048           434.00     0          0          0          0
SS0049           410.00     0          0          0          0
SS0050           419.00     0          0          0          0
SS0051           421.00     0          0          0          0
SS0052           444.00     0          0          0          0
SS0053           447.50     0          0          0          0
SS0055           455.00     0          0          0          0
SS0056           461.00     0          0          0          0
SS0057           461.00     0          0          0          0
SS0058           468.00     0          0          0          0
SS0059           468.50     0          0          0          0
SS0060           465.50     0          0          0          0
SS0061           471.00     0          0          0          0
SS0062           469.00     0          0          0          0
SS0063           481.00     0          0          0          0
SS0064           481.00     0          0          0          0
SS0065           485.00     0          0          0          0
SS0066           488.00     0          0          0          0
SS0067           491.00     0          0          0          0
SS0068           492.50     0          0          0          0
SS0069           494.00     0          0          0          0
SS0070           502.00     0          0          0          0
SS0071           486.00     0          0          0          0
SS0072           416.00     0          0          0          0
SS0073           418.00     0          0          0          0
SS0074           404.00     0          0          0          0
SS0075           402.50     0          0          0          0
SS0076           406.00     0          0          0          0
SS0077           423.00     0          0          0          0
SS0078           425.00     0          0          0          0
SS0079           428.00     0          0          0          0
SS0080           440.00     0          0          0          0
SS0081           429.00     0          0          0          0
SS0082           431.00     0          0          0          0
SS0083           434.00     0          0          0          0
SS0084           438.00     0          0          0          0
SS0085           475.00     0          0          0          0
SS0086           473.00     0          0          0          0
SS0087           473.00     0          0          0          0
SS0088           472.50     0          0          0          0
SS0089           473.00     0          0          0          0
SS0090           473.00     0          0          0          0
SS0091           474.00     0          0          0          0
SS0092           488.00     0          0          0          0
SS0093           384.00     0          0          0          0
SS0094           386.00     0          0          0          0
SS0095           384.50     0          0          0          0
SS0096           392.00     0          0          0          0
SS0097           384.00     0          0          0          0
SS0098           384.00     0          0          0          0
SS0099           385.00     0          0          0          0
SS0100           385.00     0          0          0          0
SS0101           386.00     0          0          0          0
SS0102           387.00     0          0          0          0
SS0103           392.00     0          0          0          0
SS0104           389.00     0          0          0          0
SS0105           389.00     0          0          0          0
SS0106           388.00     0          0          0          0
SS0107           392.00     0          0          0          0
SS0108           400.00     0          0          0          0
SS0109           394.00     0          0          0          0
SS0110           395.00     0          0          0          0
SS0111           396.00     0          0          0          0
SS0112           397.00     0          0          0          0
SS0113           404.00     0          0          0          0
SS0114           404.00     0          0          0          0
SS0115           406.00     0          0          0          0
SS0116           407.00     0          0          0          0
SS0117           405.00     0          0          0          0
SS0118           408.00     0          0          0          0
SS0119           403.00     0          0          0          0
SS0120           405.00     0          0          0          0
SS0121           406.00     0          0          0          0
SS0122           401.00     0          0          0          0
SS0123           401.00     0          0          0          0
SS0124           403.00     0          0          0          0
SS0125           407.00     0          0          0          0
SS0126           409.00     0          0          0          0
SS0127           412.50     0          0          0          0
SS0128           415.00     0          0          0          0
SS0129           407.50     0          0          0          0
SS0130           421.00     0          0          0          0
SS0131           412.00     0          0          0          0
SS0132           417.00     0          0          0          0
SS0133           421.00     0          0          0          0
SS0134           423.00     0          0          0          0
SS0135           435.00     0          0          0          0
SS0136           432.50     0          0          0          0
SS0137           430.00     0          0          0          0
SS0138           434.00     0          0          0          0
SS0139           383.00     0          0          0          0
SS0140           405.00     0          0          0          0
SS0141           405.00     0          0          0          0
SS0142           387.00     0          0          0          0
SS0143           402.00     0          0          0          0
SS0144           412.00     0          0          0          0
SS0145           410.00     0          0          0          0
SS0146           404.50     0          0          0          0
SS0147           405.00     0          0          0          0
SS0148           415.00     0          0          0          0
SS0149           412.00     0          0          0          0
SS0150           410.00     0          0          0          0
SS0151           405.00     0          0          0          0
SS0154           399.00     0          0          0          0
SS0152           800.00     0          0          0          0
SS0153           800.00     0          0          0          0
SS0155           402.00     0          0          0          0
SS0156           410.00     0          0          0          0
SS0157           416.00     0          0          0          0
SS0158           417.00     0          0          0          0
SS0159           407.00     0          0          0          0
SS0160           406.00     0          0          0          0
SS0162           406.00     0          0          0          0
SS0163           413.00     0          0          0          0
SS0164           419.00     0          0          0          0
SS0165           417.00     0          0          0          0
SS0166           418.00     0          0          0          0
SS0167           416.00     0          0          0          0
SS0168           418.00     0          0          0          0
SS0169           408.00     0          0          0          0
SS0170           403.00     0          0          0          0
SS0171           402.00     0          0          0          0
SS0172           405.00     0          0          0          0
SS0174           400.00     0          0          0          0
SS0175           403.00     0          0          0          0
SS0176           399.00     0          0          0          0
SS0177           400.00     0          0          0          0
SS0178           401.50     0          0          0          0
SS0179           401.50     0          0          0          0
SS0180           400.00     0          0          0          0
SS0182           406.00     0          0          0          0
SS0183           403.50     0          0          0          0
SS0184           426.00     0          0          0          0
SS0185           428.00     0          0          0          0
SS0186           439.00     0          0          0          0
SS0187           404.00     0          0          0          0
SS0188           407.00     0          0          0          0
SSA189           406.50     0          0          0          0
SS0190           415.00     0          0          0          0
SS0191           415.00     0          0          0          0
SS0192           415.00     0          0          0          0
SS0193           417.00     0          0          0          0
SS0194           429.00     0          0          0          0
SS0195           419.00     0          0          0          0
SS0196           415.00     0          0          0          0
SS0197           419.00     0          0          0          0
SS0198           416.00     0          0          0          0
SS0199           424.00     0          0          0          0
SS0200           425.00     0          0          0          0
SS0201           428.00     0          0          0          0
SS0202           420.00     0          0          0          0
SS0203           415.00     0          0          0          0
SS0204           415.00     0          0          0          0
SS0205           415.00     0          0          0          0
SS0206           415.00     0          0          0          0
SS0207           415.00     0          0          0          0
SS0208           415.00     0          0          0          0
SS0209           422.00     0          0          0          0
SS0210           419.00     0          0          0          0
SS0211           415.00     0          0          0          0
SS0212           393.00     0          0          0          0
SS0213           393.00     0          0          0          0
SS0214           380.00     0          0          0          0
SS0215           378.00     0          0          0          0
SS0216           377.00     0          0          0          0
SS0217           377.00     0          0          0          0
SS0218           379.00     0          0          0          0
SS0219           375.00     0          0          0          0
SS0220           375.00     0          0          0          0
SS0221           377.00     0          0          0          0
SS0222           379.00     0          0          0          0
SS0223           378.00     0          0          0          0
SS0224           375.00     0          0          0          0
SS0225           375.00     0          0          0          0
SS0226           377.00     0          0          0          0
SS0227           377.00     0          0          0          0
SS0228           381.00     0          0          0          0
SS0229           379.50     0          0          0          0
SS0230           381.50     0          0          0          0
SS0231           386.00     0          0          0          0
SS0232           390.00     0          0          0          0
SS0233           394.00     0          0          0          0
SS0234           392.00     0          0          0          0
SS0236           394.50     0          0          0          0
SS0237           397.00     0          0          0          0
SS0238           404.00     0          0          0          0
SS0239           400.50     0          0          0          0
SS0240           403.50     0          0          0          0
SS0242           415.00     0          0          0          0
SS0241           385.00     0          0          0          0
SS0243           415.00     0          0          0          0
SS0244           416.50     0          0          0          0
SS0245           409.00     0          0          0          0
SS0246           415.00     0          0          0          0
SS0247           418.00     0          0          0          0
SS0248           420.00     0          0          0          0
SS0249           392.00     0          0          0          0
SS0250           392.00     0          0          0          0
SS0251           390.00     0          0          0          0
SS0252           391.00     0          0          0          0
SS0253           409.00     0          0          0          0
SSA254           412.00     0          0          0          0
SS0255           412.00     0          0          0          0
SS0256           395.00     0          0          0          0
SS0257           400.00     0          0          0          0
SS0258           400.00     0          0          0          0
SS0259           400.00     0          0          0          0
SS0260           400.00     0          0          0          0
SS0261           408.00     0          0          0          0
SS0262           410.00     0          0          0          0
SS0263           412.00     0          0          0          0
SS0264           413.00     0          0          0          0
SS0265           434.50     0          0          0          0
SS0266           422.00     0          0          0          0
SS0267           415.00     0          0          0          0
SS0268           415.00     0          0          0          0
SS0269           420.50     0          0          0          0
SS0270           422.00     0          0          0          0
SS0271           433.00     0          0          0          0
SS0272           425.00     0          0          0          0
SS0273           427.00     0          0          0          0
SS0274           427.00     0          0          0          0
SS0275           428.00     0          0          0          0
SS0276           441.00     0          0          0          0
SS0750           435.00     0          0          0          0
SS0278           463.00     0          0          0          0
SS0280           494.00     0          0          0          0
SS0281           502.00     0          0          0          0
SS0282           486.00     0          0          0          0
SS0283           472.00     0          0          0          0
SS0284           478.00     0          0          0          0
SS0285           462.00     0          0          0          0
SS0286           465.00     0          0          0          0
SS0287           463.00     0          0          0          0
SS0288           464.00     0          0          0          0
SS0289           487.50     0          0          0          0
SS0290           492.80     0          0          0          0
SS0291           493.00     0          0          0          0
SS0292           496.80     0          0          0          0
SS0293           498.20     0          0          0          0
SS0294           511.00     0          0          0          0
SS0295           513.80     0          0          0          0
SS0296           511.00     0          0          0          0
SS0297           509.00     0          0          0          0
SS0298           509.00     0          0          0          0
SS0299           493.20     0          0          0          0
SS0300           500.30     0          0          0          0
SS0301           528.00     0          0          0          0
SS0615           528.00     0          0          0          0
SS0302           519.30     0          0          0          0
SS0303           519.80     0          0          0          0
SS0304           520.00     0          0          0          0
SS0305           533.60     0          0          0          0
SS0306           527.00     0          0          0          0
SS0307           526.70     0          0          0          0
SS0308           528.20     0          0          0          0
SS0309           531.00     0          0          0          0
SS0310           531.80     0          0          0          0
SS0311           532.00     0          0          0          0
SS0312           541.00     0          0          0          0
SS0313           536.80     0          0          0          0
SS0314           519.00     0          0          0          0
SS0315           522.00     0          0          0          0
SS0537           522.00     0          0          0          0
SS0316           521.60     0          0          0          0
SS0317           523.00     0          0          0          0
SS0318           526.00     0          0          0          0
SS0319           527.00     0          0          0          0
SS0320           529.00     0          0          0          0
SS0321           534.80     0          0          0          0
SS0322           536.10     0          0          0          0
SS0323           538.80     0          0          0          0
SS0324           541.60     0          0          0          0
SS0325           541.80     0          0          0          0
SS0326           544.00     0          0          0          0
SS0327           545.00     0          0          0          0
SS0328           548.20     0          0          0          0
SS0329           548.00     0          0          0          0
SS0330           549.00     0          0          0          0
SS0331           534.00     0          0          0          0
SS0332           555.40     0          0          0          0
SS0333           555.40     0          0          0          0
SS0334           558.80     0          0          0          0
SS0335           560.60     0          0          0          0
SS0336           564.00     0          0          0          0
SS0337           567.40     0          0          0          0
SS0338           568.80     0          0          0          0
SS0339           569.20     0          0          0          0
SS0340           569.50     0          0          0          0
SS0341           574.90     0          0          0          0
SS0342           401.00     0          0          0          0
SS0343           404.10     0          0          0          0
SS0344           404.10     0          0          0          0
SS0345           403.40     0          0          0          0
SS0346           401.50     0          0          0          0
SS0347           462.20     0          0          0          0
SS0348           492.00     0          0          0          0
SS0349           472.20     0          0          0          0
SS0350           476.40     0          0          0          0
SS0351           482.20     0          0          0          0
SS0352           499.00     0          0          0          0
SS0353           495.00     0          0          0          0
SS0354           498.30     0          0          0          0
SS0355           502.00     0          0          0          0
SS0356           503.00     0          0          0          0
SS0357           503.20     0          0          0          0
SS0358           504.40     0          0          0          0
SS0359           506.00     0          0          0          0
SS0360           462.50     0          0          0          0
SS0361           462.50     0          0          0          0
SS0362           483.00     0          0          0          0
SS0363           488.20     0          0          0          0
SS0364           491.30     0          0          0          0
SS0365           492.40     0          0          0          0
SS0366           498.00     0          0          0          0
SS0367           501.40     0          0          0          0
SS0368           492.60     0          0          0          0
SS0369           496.40     0          0          0          0
SS0370           505.40     0          0          0          0
SS0371           500.80     0          0          0          0
SS0372           502.00     0          0          0          0
SS0373           508.00     0          0          0          0
SS0374           506.50     0          0          0          0
SS0375           508.10     0          0          0          0
SS0376           510.80     0          0          0          0
SS0377           514.00     0          0          0          0
SS0378           518.40     0          0          0          0
SS0379           521.70     0          0          0          0
SS0380           468.80     0          0          0          0
SS0381           467.70     0          0          0          0
SS0382           486.00     0          0          0          0
SS0383           483.00     0          0          0          0
SS0384           482.90     0          0          0          0
SS0385           483.70     0          0          0          0
SS0386           482.80     0          0          0          0
SS0387           398.00     0          0          0          0
SS0388           398.00     0          0          0          0
SS0389           396.00     0          0          0          0
SS0390           397.00     0          0          0          0
SS0391           398.00     0          0          0          0
SS0392           399.50     0          0          0          0
SS0393           400.00     0          0          0          0
SS0394           400.00     0          0          0          0
SS0395           402.00     0          0          0          0
SS0396           402.80     0          0          0          0
SS0397           408.00     0          0          0          0
SS0398           411.00     0          0          0          0
SS0399           417.00     0          0          0          0
SS0400           415.60     0          0          0          0
SS0401           416.00     0          0          0          0
SS0402           417.00     0          0          0          0
SS0403           415.00     0          0          0          0
SS0404           419.00     0          0          0          0
SS0405           420.00     0          0          0          0
SS0406           420.00     0          0          0          0
SS0407           415.00     0          0          0          0
SS0408           428.00     0          0          0          0
SS0409           420.00     0          0          0          0
SS0410           420.00     0          0          0          0
SS0411           420.00     0          0          0          0
SS0412           422.00     0          0          0          0
SS0413           421.00     0          0          0          0
SS0414           423.00     0          0          0          0
SS0415           422.00     0          0          0          0
SS0416           424.00     0          0          0          0
SS0417           432.50     0          0          0          0
SS0418           432.50     0          0          0          0
SS0419           428.00     0          0          0          0
SS0420           429.00     0          0          0          0
SS0421           416.00     0          0          0          0
SS0422           417.00     0          0          0          0
SS0423           419.00     0          0          0          0
SS0424           421.00     0          0          0          0
SS0425           423.00     0          0          0          0
SS0426           423.00     0          0          0          0
SS0427           425.00     0          0          0          0
SS0428           432.30     0          0          0          0
SS0430           432.60     0          0          0          0
SS0431           433.00     0          0          0          0
SS0432           445.00     0          0          0          0
SS0433           424.40     0          0          0          0
SS0435           434.00     0          0          0          0
SS0436           437.80     0          0          0          0
SS0437           460.00     0          0          0          0
SS0438           460.00     0          0          0          0
SS0439           450.40     0          0          0          0
SS0440           419.50     0          0          0          0
SS0441           422.00     0          0          0          0
SS0442           434.00     0          0          0          0
SS0443           431.00     0          0          0          0
SS0444           427.00     0          0          0          0
SS0445           429.00     0          0          0          0
SS0446           433.00     0          0          0          0
SS0447           441.40     0          0          0          0
SS0448           431.40     0          0          0          0
SS0449           435.30     0          0          0          0
SS0450           455.90     0          0          0          0
SS0451           427.00     0          0          0          0
SS0452           440.60     0          0          0          0
SS0453           441.80     0          0          0          0
SS0454           443.40     0          0          0          0
SS0455           452.00     0          0          0          0
SS0456           455.00     0          0          0          0
SS0457           440.00     0          0          0          0
SS0458           438.30     0          0          0          0
SS0459           440.70     0          0          0          0
SS0460           464.00     0          0          0          0
SS0461           470.00     0          0          0          0
SS0462           476.50     0          0          0          0
SS0463           476.50     0          0          0          0
SS0464           485.40     0          0          0          0
SS0465           488.10     0          0          0          0
SS0466           430.00     0          0          0          0
SS0467           430.00     0          0          0          0