;; SWMM5 .inp converted from XPSWMM .xp file
;; Generated by XPSWMM Card Reader
;; Source format: XP_CARD | Original title: (none)

[TITLE]
;;Project Title/Notes
Converted from XPSWMM .xp file

[OPTIONS]
FLOW_UNITS           CFS
INFILTRATION         HORTON
FLOW_ROUTING         DYNWAVE
LINK_OFFSETS         DEPTH
MIN_SLOPE            0.0
ALLOW_PONDING        NO
SKIP_STEADY_STATE    NO
ROUTING_STEP         00:00:06
VARIABLE_STEP        0.75
INERTIAL_DAMPING     PARTIAL
NORMAL_FLOW_LIMITED  BOTH

[JUNCTIONS]
;;Name           Elev       MaxDepth   InitDepth  SurDepth   Aponded
;;-------------- ---------- ---------- ---------- ---------- ----------
6005             103.00     0          0          0          0
5970             105.00     0          0          0          0
5971             105.00     0          0          0          0
5973             105.00     0          0          0          0
5975             105.00     0          0          0          0
5974             106.00     0          0          0          0
5972             105.00     0          0          0          0
5976             105.00     0          0          0          0
6084             105.00     0          0          0          0
6103             106.00     0          0          0          0
6083             105.00     0          0          0          0
6082             105.00     0          0          0          0
6081             105.00     0          0          0          0
6049             105.00     0          0          0          0
6040             104.00     0          0          0          0
6031             104.00     0          0          0          0
6022             105.00     0          0          0          0
5964             108.00     0          0          0          0
5965             107.00     0          0          0          0
6013             106.00     0          0          0          0
5995             104.00     0          0          0          0
6004             105.00     0          0          0          0
5955             107.00     0          0          0          0
5947             104.00     0          0          0          0
5946             105.00     0          0          0          0
5948             104.00     0          0          0          0
5951             104.00     0          0          0          0
5949             105.00     0          0          0          0
5943             105.00     0          0          0          0
5952             104.00     0          0          0          0
5953             105.00     0          0          0          0
5954             104.00     0          0          0          0
6080             105.00     0          0          0          0
6079             104.00     0          0          0          0
5942             105.00     0          0          0          0
5945             107.00     0          0          0          0
5944             106.00     0          0          0          0
5957             106.00     0          0          0          0
5956             106.00     0          0          0          0
5977             104.00     0          0          0          0
5968             105.00     0          0          0          0
5986             105.00     0          0          0          0
5959             104.00     0          0          0          0
5950             104.00     0          0          0          0
5941             104.00     0          0          0          0
6012             105.00     0          0          0          0
6014             104.00     0          0          0          0
6015             105.00     0          0          0          0
6011             105.00     0          0          0          0
5993             106.00     0          0          0          0
5994             104.00     0          0          0          0
5996             105.00     0          0          0          0
5958             104.00     0          0          0          0
5960             105.00     0          0          0          0
5961             105.00     0          0          0          0
5962             105.00     0          0          0          0
5963             97.00      0          0          0          0
6112             105.00     0          0          0          0
6121             105.00     0          0          0          0
5998             104.00     0          0          0          0
5999             104.00     0          0          0          0
5997             104.00     0          0          0          0
6000             104.00     0          0          0          0
6001             104.00     0          0          0          0
6002             105.00     0          0          0          0
6010             105.00     0          0          0          0
6009             106.00     0          0          0          0
6008             109.00     0          0          0          0
4777             111.00     0          0          0          0
5967             105.00     0          0          0          0
5969             105.00     0          0          0          0
5979             108.00     0          0          0          0
5978             108.00     0          0          0          0
5983             98.00      0          0          0          0
5984             98.00      0          0          0          0
5985             108.00     0          0          0          0
5966             97.00      0          0          0          0
5987             103.00     0          0          0          0
5981             104.00     0          0          0          0
5988             104.00     0          0          0          0
5989             110.00     0          0          0          0
5990             115.00     0          0          0          0
5991             113.00     0          0          0          0
5992             110.00     0          0          0          0
6007             103.00     0          0          0          0
6006             102.00     0          0          0          0
6437             106.00     0          0          0          0
6436             109.00     0          0          0          0
6438             107.00     0          0          0          0
377              106.00     0          0          0          0
379              106.00     0          0          0          0
381              106.00     0          0          0          0
383              106.00     0          0          0          0
385              105.00     0          0          0          0
387              105.00     0          0          0          0
389              106.00     0          0          0          0
391              106.00     0          0          0          0
393              105.00     0          0          0          0
396              104.00     0          0          0          0
397              105.00     0          0          0          0
399              104.00     0          0          0          0
402              105.00     0          0          0          0
420              105.00     0          0          0          0
432              105.00     0          0          0          0
434              105.00     0          0          0          0
436              105.00     0          0          0          0
438              105.00     0          0          0          0
443              105.00     0          0          0          0
445              105.00     0          0          0          0

[CONDUITS]
;;Name           From             To               Length     Roughness  InOffset   OutOffset  InitFlow   MaxFlow
;;-------------- ---------------- ---------------- ---------- ---------- ---------- ---------- ---------- ----------
17110P           17110O           5971             374.00     0.0130     96.61      95.49      0          0
17112P           17112O           5973             344.00     0.0130     95.31      94.84      0          0
17113P           17113O           5975             71.00      0.0130     94.82      94.75      0          0
17114P           17114O           5975             37.00      0.0130     94.80      94.75      0          0
17111P           17111O           5972             131.00     0.0130     95.49      95.31      0          0
17115P           17115O           5976             265.00     0.0130     94.75      94.49      0          0
17117P           17117O           6103             109.00     0.0130     94.49      94.32      0          0
17225P           17225O           6084             220.00     0.0130     94.79      94.37      0          0
17226P           17226O           6103             29.00      0.0130     94.37      94.32      0          0
17224P           17224O           6083             230.00     0.0130     95.23      94.79      0          0
17223P           17223O           6082             459.00     0.0130     96.10      95.23      0          0
17177P           17177O           6040             63.00      0.0130     93.21      93.03      0          0
17168P           17168O           6031             193.00     0.0130     93.03      92.49      0          0
17159P           17159O           6022             52.00      0.0130     92.49      92.34      0          0
17103P           17103O           5964             301.00     0.0130     89.34      88.74      0          0
17104P           17104O           5965             160.00     0.0130     88.74      88.42      0          0
17105P           17105O           5966             81.00      0.0130     88.42      88.26      0          0
17151P           17151O           6022             400.00     0.0130     89.70      89.34      0          0
17142P           17142O           6013             400.00     0.0130     90.10      89.70      0          0
17125P           17125O           5995             193.00     0.0130     92.51      91.93      0          0
17133P           17133O           6004             52.00      0.0130     90.26      90.10      0          0
17094P           17094O           6004             397.00     0.0130     90.50      90.10      0          0
17093P           17093O           5955             398.00     0.0130     90.90      90.50      0          0
17086P           17086O           5947             193.00     0.0130     91.60      91.04      0          0
17085P           17085O           5946             52.00      0.0130     91.04      90.90      0          0
17082P           17082O           5949             487.00     0.0130     93.06      92.08      0          0
17090P           17090O           5951             190.00     0.0130     92.40      92.02      0          0
17088P           17088O           5949             37.00      0.0130     92.02      91.95      0          0
17091P           17091O           5952             64.00      0.0130     92.90      92.40      0          0
17092P           17092O           5953             38.00      0.0130     93.05      92.90      0          0
17222P           17222O           5954             255.00     0.0130     93.85      93.05      0          0
17220P           17220O           6080             327.00     0.0130     94.51      93.85      0          0
17081P           17081O           5953             487.00     0.0130     95.47      94.50      0          0
17084P           17084O           5946             402.00     0.0130     91.70      90.90      0          0
17083P           17083O           5945             385.00     0.0130     92.47      91.70      0          0
17096P           17096O           5944             260.00     0.0130     93.19      92.44      0          0
17095P           17095O           5957             355.00     0.0130     94.25      93.19      0          0
17107P           17107O           5986             390.00     0.0130     94.40      93.62      0          0
17116P           17116O           5977             63.00      0.0130     92.69      92.51      0          0
17098P           17098O           5986             37.00      0.0130     92.76      92.69      0          0
17089P           17089O           5959             190.00     0.0130     93.14      92.76      0          0
17080P           17080O           5950             100.00     0.0130     93.44      93.14      0          0
17154P           17154O           6011             187.00     0.0130     89.15      88.96      0          0
17157P           17157O           6012             35.00      0.0130     93.50      93.15      0          0
17156P           17156O           6012             25.00      0.0130     94.25      94.00      0          0
17155P           17155O           5993             322.00     0.0130     88.96      88.64      0          0
17134P           17134O           5994             119.00     0.0130     88.47      88.41      0          0
17135P           17135O           5996             150.00     0.0130     88.41      88.34      0          0
17136P           17136O           5961             195.00     0.0130     88.34      88.24      0          0
17097P           17097O           5960             268.00     0.0130     93.39      92.59      0          0
17099P           17099O           5961             68.00      0.0130     92.59      92.45      0          0
17100P           17100O           5962             58.00      0.0130     88.24      88.12      0          0
17101P           17101O           5963             163.00     0.0130     88.12      87.79      0          0
17248P           17248O           6049             280.00     0.0130     93.77      93.21      0          0
17257P           17257O           6112             240.00     0.0130     94.25      93.77      0          0
17138P           17138O           5999             288.00     0.0130     89.70      89.40      0          0
17137P           17137O           5998             120.00     0.0130     89.82      89.70      0          0
17139P           17139O           6000             40.00      0.0130     89.40      89.36      0          0
17140P           17140O           6001             50.00      0.0130     89.36      89.31      0          0
17141P           17141O           6002             330.00     0.0130     89.31      88.98      0          0
17149P           17149O           6010             269.00     0.0130     87.45      87.32      0          0
17148P           17148O           6009             66.00      0.0130     87.48      87.45      0          0
19368P           19368O           4777             250.00     0.0130     87.32      87.20      0          0
17102P           17102O           5967             270.00     0.0130     87.79      87.13      0          0
19369P           19369O           5967             217.00     0.0130     87.20      87.13      0          0
17108P           17108O           5969             60.00      0.0130     87.13      86.65      0          0
17120P           17120O           5983             26.55      0.0130     95.14      89.83      0          0
17121P           17121O           5984             25.00      0.0130     89.83      89.83      0          0
17122P           17122O           5985             25.35      0.0130     89.83      94.90      0          0
17123P           17123O           5979             32.00      0.0130     94.90      94.81      0          0
17106P           17106O           5967             397.00     0.0130     88.26      87.13      0          0
17126P           17126O           5981             25.00      0.0130     92.97      91.40      0          0
17127P           17127O           5988             130.00     0.0130     91.40      93.00      0          0
17128P           17128O           5989             45.00      0.0130     93.00      98.42      0          0
17129P           17129O           5990             35.00      0.0130     98.42      105.70     0          0
17130P           17130O           5991             20.00      0.0130     105.70     106.00     0          0
17131P           17131O           5992             35.00      0.0130     106.00     101.00     0          0
17147P           17147O           6008             386.00     0.0130     87.67      87.48      0          0
17146P           17146O           6007             70.00      0.0130     87.71      87.67      0          0
17145P           17145O           6006             67.00      0.0130     87.74      87.71      0          0
17087P           17087O           5948             63.00      0.0130     91.95      91.80      0          0
18174P           18174O           5997             280.00     0.0130     90.10      89.82      0          0
18172P           18172O           6437             65.00      0.0130     90.17      90.10      0          0
405P             405O             ?                263.00     0.0130     91.02      90.76      0          0
406P             406O             ?                152.00     0.0130     91.28      91.13      0          0
407P             407O             ?                110.00     0.0130     91.13      91.02      0          0
408P             408O             ?                137.00     0.0130     90.76      90.62      0          0
409P             409O             ?                375.00     0.0130     90.62      90.24      0          0
410P             410O             ?                330.00     0.0130     90.24      89.93      0          0
411P             411O             ?                280.00     0.0130     89.93      89.65      0          0
412P             412O             ?                160.00     0.0130     89.65      89.49      0          0
413P             413O             ?                160.00     0.0130     89.49      89.33      0          0
414P             414O             ?                178.00     0.0130     89.33      89.15      0          0
415p             415O             ?                147.00     0.0130     88.91      88.76      0          0
416P             416O             ?                180.00     0.0130     88.76      88.22      0          0
417P             417O             ?                160.00     0.0130     88.22      87.74      0          0
418P             418O             ?                100.00     0.0130     88.79      88.59      0          0
419P             419O             ?                95.00      0.0130     88.98      88.79      0          0
431P             431O             ?                385.00     0.0130     93.98      93.21      0          0
433P             433O             ?                344.00     0.0130     94.32      93.98      0          0
435P             435O             ?                237.00     0.0130     93.98      93.74      0          0
437P             437O             ?                100.00     0.0130     93.74      93.64      0          0
439P             439O             ?                190.00     0.0130     93.64      93.28      0          0
440P             440O             ?                37.00      0.0130     93.28      93.21      0          0
441P             441O             ?                657.00     0.0130     94.81      92.97      0          0
446P             446O             ?                32.00      0.0130     96.70      95.46      0          0
447P             447O             ?                160.00     0.0130     95.46      95.14      0          0

[PUMPS]
;;Name           From             To               PumpCurve  Status   Startup    Shutoff
;;-------------- ---------------- ---------------- ---------- -------- ---------- ----------
465              ?                ?                *          ON       0          0         

[XSECTIONS]
;;Link           Shape        Geom1      Geom2      Geom3      Geom4      Barrels
;;-------------- ------------ ---------- ---------- ---------- ---------- ----------
17110P           CIRCULAR     1.25       0          0          0          1
17112P           CIRCULAR     2.00       0          0          0          1
17113P           CIRCULAR     2.00       0          0          0          1
17114P           CIRCULAR     1.50       0          0          0          1
17111P           CIRCULAR     2.00       0          0          0          1
17115P           CIRCULAR     2.00       0          0          0          1
17117P           CIRCULAR     2.00       0          0          0          1
17225P           CIRCULAR     1.50       0          0          0          1
17226P           CIRCULAR     1.50       0          0          0          1
17224P           CIRCULAR     1.50       0          0          0          1
17223P           CIRCULAR     1.25       0          0          0          1
17177P           CIRCULAR     2.50       0          0          0          1
17168P           CIRCULAR     2.50       0          0          0          1
17159P           CIRCULAR     2.50       0          0          0          1
17103P           CIRCULAR     3.50       0          0          0          1
17104P           CIRCULAR     3.50       0          0          0          1
17105P           CIRCULAR     3.50       0          0          0          1
17151P           CIRCULAR     3.00       0          0          0          1
17142P           CIRCULAR     3.00       0          0          0          1
17125P           CIRCULAR     1.75       0          0          0          1
17133P           CIRCULAR     1.75       0          0          0          1
17094P           CIRCULAR     2.50       0          0          0          1
17093P           CIRCULAR     2.50       0          0          0          1
17086P           CIRCULAR     1.75       0          0          0          1
17085P           CIRCULAR     1.75       0          0          0          1
17082P           CIRCULAR     1.25       0          0          0          1
17090P           CIRCULAR     1.75       0          0          0          1
17088P           CIRCULAR     1.75       0          0          0          1
17091P           CIRCULAR     1.75       0          0          0          1
17092P           CIRCULAR     1.25       0          0          0          1
17222P           CIRCULAR     1.25       0          0          0          1
17220P           CIRCULAR     1.25       0          0          0          1
17081P           CIRCULAR     1.25       0          0          0          1
17084P           CIRCULAR     1.50       0          0          0          1
17083P           CIRCULAR     1.50       0          0          0          1
17096P           CIRCULAR     1.25       0          0          0          1
17095P           CIRCULAR     1.25       0          0          0          1
17107P           CIRCULAR     1.25       0          0          0          1
17116P           CIRCULAR     1.75       0          0          0          1
17098P           CIRCULAR     1.75       0          0          0          1
17089P           CIRCULAR     1.75       0          0          0          1
17080P           CIRCULAR     1.25       0          0          0          1
17154P           CIRCULAR     4.00       0          0          0          1
17157P           CIRCULAR     2.00       0          0          0          1
17156P           CIRCULAR     2.00       0          0          0          1
17155P           CIRCULAR     4.00       0          0          0          1
17134P           CIRCULAR     4.00       0          0          0          1
17135P           CIRCULAR     4.00       0          0          0          1
17136P           CIRCULAR     4.00       0          0          0          1
17097P           CIRCULAR     1.25       0          0          0          1
17099P           CIRCULAR     1.25       0          0          0          1
17100P           CIRCULAR     4.00       0          0          0          1
17101P           CIRCULAR     4.00       0          0          0          1
17248P           CIRCULAR     1.25       0          0          0          1
17257P           CIRCULAR     1.25       0          0          0          1
17138P           CIRCULAR     2.25       0          0          0          1
17137P           CIRCULAR     2.25       0          0          0          1
17139P           CIRCULAR     2.25       0          0          0          1
17140P           CIRCULAR     2.50       0          0          0          1
17141P           CIRCULAR     2.50       0          0          0          1
17149P           CIRCULAR     3.50       0          0          0          1
17148P           CIRCULAR     3.50       0          0          0          1
19368P           CIRCULAR     3.50       0          0          0          1
17102P           CIRCULAR     2.50       0          0          0          1
19369P           CIRCULAR     3.50       0          0          0          1
17108P           CIRCULAR     3.00       0          0          0          1
17120P           CIRCULAR     2.00       0          0          0          1
17121P           CIRCULAR     2.00       0          0          0          1
17122P           CIRCULAR     2.00       0          0          0          1
17123P           CIRCULAR     2.00       0          0          0          1
17106P           CIRCULAR     2.50       0          0          0          1
17126P           CIRCULAR     2.00       0          0          0          1
17127P           CIRCULAR     2.00       0          0          0          1
17128P           CIRCULAR     2.00       0          0          0          1
17129P           CIRCULAR     2.00       0          0          0          1
17130P           CIRCULAR     2.00       0          0          0          1
17131P           CIRCULAR     2.00       0          0          0          1
17147P           CIRCULAR     3.50       0          0          0          1
17146P           CIRCULAR     2.75       0          0          0          1
17145P           CIRCULAR     2.75       0          0          0          1
17087P           CIRCULAR     1.75       0          0          0          1
18174P           CIRCULAR     2.00       0          0          0          1
18172P           CIRCULAR     1.50       0          0          0          1
405P             CIRCULAR     4.00       0          0          0          1
406P             CIRCULAR     4.00       0          0          0          1
407P             CIRCULAR     4.00       0          0          0          1
408P             CIRCULAR     4.00       0          0          0          1
409P             CIRCULAR     4.00       0          0          0          1
410P             CIRCULAR     4.00       0          0          0          1
411P             CIRCULAR     4.00       0          0          0          1
412P             CIRCULAR     4.00       0          0          0          1
413P             CIRCULAR     4.00       0          0          0          1
414P             CIRCULAR     4.00       0          0          0          1
415p             CIRCULAR     2.25       0          0          0          1
416P             CIRCULAR     2.25       0          0          0          1
417P             CIRCULAR     2.25       0          0          0          1
418P             CIRCULAR     2.50       0          0          0          1
419P             CIRCULAR     2.50       0          0          0          1
431P             CIRCULAR     1.25       0          0          0          1
433P             CIRCULAR     2.25       0          0          0          1
435P             CIRCULAR     2.50       0          0          0          1
437P             CIRCULAR     2.50       0          0          0          1
439P             CIRCULAR     2.50       0          0          0          1
440P             CIRCULAR     2.50       0          0          0          1
441P             CIRCULAR     2.00       0          0          0          1
446P             CIRCULAR     2.00       2.00       0          0          1
447P             CIRCULAR     2.00       0          0          0          1

[LOSSES]
;;Link           Inlet      Outlet     Average    Flap Gate
;;-------------- ---------- ---------- ---------- ----------
17110P           0          0          0          NO
17112P           0          0          0          NO
17113P           0          0          0          NO
17114P           0          0          0          NO
17111P           0          0          0          NO
17115P           0          0          0          NO
17117P           0          0          0          NO
17225P           0          0          0          NO
17226P           0          0          0          NO
17224P           0          0          0          NO
17223P           0          0          0          NO
17177P           0          0          0          NO
17168P           0          0          0          NO
17159P           0          0          0          NO
17103P           0          0          0          NO
17104P           0          0          0          NO
17105P           0          0          0          NO
17151P           0          0          0          NO
17142P           0          0          0          NO
17125P           0          0          0          NO
17133P           0          0          0          NO
17094P           0          0          0          NO
17093P           0          0          0          NO
17086P           0          0          0          NO
17085P           0          0          0          NO
17082P           0          0          0          NO
17090P           0          0          0          NO
17088P           0          0          0          NO
17091P           0          0          0          NO
17092P           0          0          0          NO
17222P           0          0          0          NO
17220P           0          0          0          NO
17081P           0          0          0          NO
17084P           0          0          0          NO
17083P           0          0          0          NO
17096P           0          0          0          NO