;; SWMM5 .inp converted from XPSWMM .xp file
;; Generated by XPSWMM Card Reader
;; Source format: XP_CARD | Original title: RUNOFF-EXTRAN model for UPPER MT. SCOTT CREEK

[TITLE]
;;Project Title/Notes
RUNOFF-EXTRAN model for UPPER MT. SCOTT CREEK

[OPTIONS]
FLOW_UNITS           CFS
INFILTRATION         HORTON
FLOW_ROUTING         DYNWAVE
LINK_OFFSETS         DEPTH
MIN_SLOPE            0.0
ALLOW_PONDING        NO
SKIP_STEADY_STATE    NO
ROUTING_STEP         00:00:05
VARIABLE_STEP        0.75
INERTIAL_DAMPING     PARTIAL
NORMAL_FLOW_LIMITED  BOTH
MAX_TRIALS           100
HEAD_TOLERANCE       .0066

[JUNCTIONS]
;;Name           Elev       MaxDepth   InitDepth  SurDepth   Aponded
;;-------------- ---------- ---------- ---------- ---------- ----------
WBR              135.00     0          0          0          0
SRL              160.00     0          0          0          0
KRC              260.00     0          0          0          0
RTR              109.00     0          0          0          0
OKR              115.00     0          0          0          0
HLR              305.00     0          0          0          0
AHL              90.00      0          0          0          0
VTL/ACD          100.00     0          0          0          0
LWD              130.00     0          0          0          0
JSC              109.80     0          0          0          0
07380            112.50     0          0          0          0
07360            112.50     0          0          0          0
07300            112.50     0          0          0          0
07280            111.00     0          0          0          0
07220            111.00     0          0          0          0
07200            111.00     0          0          0          0
MBA/NRA          111.00     0          0          0          0
07160            111.00     0          0          0          0
07140            111.00     0          0          0          0
07120            110.00     0          0          0          0
07100            111.00     0          0          0          0
07080            111.00     0          0          0          0
07060            109.00     0          0          0          0
07040            109.00     0          0          0          0
06980            108.00     0          0          0          0
06960            108.00     0          0          0          0
06940            108.00     0          0          0          0
06920            110.00     0          0          0          0
06900            110.00     0          0          0          0
06880            108.00     0          0          0          0
06860            106.00     0          0          0          0
THR/ALC          106.00     0          0          0          0
06760            98.00      0          0          0          0
06740            98.00      0          0          0          0
06720            96.00      0          0          0          0
06700            94.00      0          0          0          0
06650            92.00      0          0          0          0
06600            88.00      0          0          0          0
06450            86.00      0          0          0          0
06350            82.31      0          0          0          0
06300            82.13      0          0          0          0
06250            81.71      0          0          0          0
06200            86.95      0          0          0          0
CVW              86.95      0          0          0          0
06100            83.00      0          0          0          0
06050            74.56      0          0          0          0
06000            70.70      0          0          0          0
05950            73.05      0          0          0          0
05900            78.11      0          0          0          0
05850            78.11      0          0          0          0
05800            71.53      0          0          0          0
05750            79.50      0          0          0          0
05700            87.53      0          0          0          0
05650            87.11      0          0          0          0
05625            70.00      0          0          0          0
05500            66.00      0          0          0          0
05450            66.00      0          0          0          0
07260            240.00     0          0          0          0
07240            140.00     0          0          0          0
07320            134.00     0          0          0          0
07460            109.80     0          0          0          0
07480            107.00     0          0          0          0
06780            109.98     0          0          0          0
06500            87.00      0          0          0          0
05550            90.00      0          0          0          0
WBL              115.00     0          0          0          0
CLR              109.00     0          0          0          0
SBL              110.00     0          0          0          0
ECR              120.00     0          0          0          0

[CONDUITS]
;;Name           From             To               Length     Roughness  InOffset   OutOffset  InitFlow   MaxFlow
;;-------------- ---------------- ---------------- ---------- ---------- ---------- ---------- ---------- ----------
JSCSB07380       Node_7380        Node_10401041    41.09      0.0140     103.67     102.78     0          0
0738007360       Node_738007360   Node_10411043    419.53     0          102.78     101.10     0          0
0730007360       Node_730007360   Node_10431045    135.58     0          101.10     100.96     0          0
0730007280       Node_730007280   Node_10451047    164.20     0          101.21     101.04     0          0
0728007220       Node_728007220   Node_10471049    355.49     0          101.26     100.22     0          0
0722007200       Node_722007200   Node_10491051    401.28     0          100.22     99.81      0          0
07200MBNRA       Node_7200        Node_10511053    256.81     0          101.27     101.01     0          0
24"RCSP          44"ACMP          ovrflw           35.90      0.0140     101.26     100.15     0          0
0716007140       Node_716007140   Node_10551057    506.24     0          101.49     99.58      0          0
0714007120       Node_714007120   Node_10571059    71.19      0          99.58      99.32      0          0
0712007100       Node_712007100   Node_10591061    143.71     0          99.32      99.16      0          0
0710007080       Node_710007080   Node_10611063    206.14     0          99.16      98.94      0          0
0708007060       Node_708007060   Node_10631065    238.37     0          98.94      98.70      0          0
0706007040       Node_706007040   Node_10651067    282.12     0          98.70      98.00      0          0
0704000CLR       Node_704000      Node_10671295    120.94     0          98.00      97.80      0          0
0698006960       Node_698006960   Node_10701071    142.44     0          98.00      97.49      0          0
0696006940       Node_696006940   Node_10711073    226.01     0          97.49      97.26      0          0
0694006920       Node_694006920   Node_10731075    257.31     0          98.57      97.27      0          0
0690006880       Node_690006880   Node_10771078    835.48     0          96.90      88.26      0          0
0688006860       Node_688006860   Node_10781080    333.64     0          88.26      87.48      0          0
06860THALC       Node_6860        Node_10801082    301.07     0          87.48      85.03      0          0
36"              30"              OVRDW            111.60     0.0140     97.27      96.90      0          0
0676006740       Node_676006740   Node_10841086    210.98     0          85.63      85.42      0          0
0674006720       Node_674006720   Node_10861088    161.06     0          85.42      81.92      0          0
0672006700       Node_672006700   Node_10881090    191.47     0          81.92      79.23      0          0
0670006650       Node_670006650   Node_10901092    308.96     0          79.23      74.23      0          0
0665006600       Node_665006600   Node_10921094    162.61     0          74.23      71.40      0          0
0645006350       Node_645006350   Node_10961097    153.14     0          70.34      68.91      0          0
S.Split          N.Split          Node_10941096    201.16     0          71.40      70.34      0          0
0635006300       Node_635006300   Node_10971100    128.51     0          68.91      68.73      0          0
0630006250       Node_630006250   Node_11001102    262.98     0          68.73      68.72      0          0
0625006200       Node_625006200   Node_11021104    215.29     0          69.28      67.36      0          0
0620000CVW       Node_620000      Node_11041106    264.54     0          67.36      66.78      0          0
00CVW06100       Node_6100        Node_11061108    74.67      0.0140     67.34      65.47      0          0
0610006050       Node_610006050   Node_11081110    238.69     0          65.47      63.78      0          0
0605006000       Node_605006000   Node_11101112    245.56     0          63.78      62.45      0          0
0600005950       Node_600005950   Node_11121114    113.94     0          62.45      62.28      0          0
0595005900       Node_595005900   Node_11141116    85.66      0          62.28      61.90      0          0
0590005850       Node_590005850   Node_11161118    100.98     0          61.90      61.89      0          0
0585005800       Node_585005800   Node_11181120    61.68      0          62.50      61.55      0          0
0580005750       Node_580005750   Node_11201122    86.29      0          61.55      60.50      0          0
0575005700       Node_575005700   Node_11221124    209.99     0          60.50      59.94      0          0
057000650        Node_57000650    Node_11241126    254.68     0          59.94      59.52      0          0
0565005625       Node_565005625   Node_11261128    164.36     0          59.52      58.96      0          0
0550005450       Node_550005450   Node_11301131    340.88     0          57.34      54.74      0          0
rtds             lfds             Node_11281130    130.32     0          58.96      57.34      0          0
00KRC07260       Node_7260        Node_10281148    45.00      0.0140     232.50     230.00     0          0
0726007240       Node_726007240   Node_11481150    1000.00    0.0350     230.00     130.00     0          0
0724007220       Node_724007220   Node_11501049    250.00     0.0350     130.00     100.22     0          0
00SRL07320       Node_7320        Node_10271153    350.00     0.0240     152.60     130.00     0          0
0732007300       Node_732007300   Node_11531045    150.00     0.0350     130.00     101.10     0          0
00WBR07380       Node_7380        Node_10261041    550.00     0.0140     128.50     102.78     0          0
00RTR07480       Node_7480        Node_10291158    100.00     0.0140     104.50     103.11     0          0
00HLR06780       Node_6780        Node_10311160    2024.00    0.0140     293.00     106.27     0          0
0678006760       Node_678006760   Node_11601084    570.00     0.0140     106.23     84.65      0          0
00OKR06780       Node_6780        Node_10301160    90.00      0.0140     112.18     107.11     0          0
00AHL06500       Node_6500        Node_10321164    75.00      0.0140     85.00      84.00      0          0
0650006450       Node_650006450   Node_11641096    320.00     0.0350     84.00      70.34      0          0
00LWD06350       Node_6350        Node_10341097    371.00     0.0350     120.00     68.91      0          0
VTACD05550       Node_5550        Node_10331168    60.00      0.0140     87.70      86.00      0          0
0555005500       Node_555005500   Node_11681130    220.00     0.0140     86.00      57.34      0          0
00WBLJSCSB       ?                Node_11711040    530.00     0.0140     112.00     103.07     0          0
0748007460       Node_748007460   Node_11581157    586.24     0          103.11     102.52     0          0
07460JSBSC       Node_7460        Node_11571040    374.70     0          103.45     103.07     0          0
clack            ovrclk           Node_12951070    71.06      0.0140     97.80      97.72      0          0
972              Node_972         Node_12991158    100.00     0.0150     103.50     103.11     0          0
00ECR06980       Node_6980        Node_13011070    1200.00    0.0140     112.70     97.72      0          0
thsn             ovrthsn          Node_10821084    63.08      0.0150     85.03      84.65      0          0

[XSECTIONS]
;;Link           Shape        Geom1      Geom2      Geom3      Geom4      Barrels
;;-------------- ------------ ---------- ---------- ---------- ---------- ----------
JSCSB07380       RECT_CLOSED  4.00       4.00       0          0          1
0738007360       IRREGULAR    0          0          0          0          1
0730007360       IRREGULAR    0          0          0          0          1
0730007280       IRREGULAR    0          0          0          0          1
0728007220       IRREGULAR    0          0          0          0          1
0722007200       IRREGULAR    0          0          0          0          1
07200MBNRA       IRREGULAR    0          0          0          0          1
24"RCSP          CIRCULAR     2.00       0          0          0          1
0716007140       IRREGULAR    0          0          0          0          1
0714007120       IRREGULAR    0          0          0          0          1
0712007100       IRREGULAR    0          0          0          0          1
0710007080       IRREGULAR    0          0          0          0          1
0708007060       IRREGULAR    0          0          0          0          1
0706007040       IRREGULAR    0          0          0          0          1
0704000CLR       IRREGULAR    0          0          0          0          1
0698006960       IRREGULAR    0          0          0          0          1
0696006940       IRREGULAR    0          0          0          0          1
0694006920       IRREGULAR    0          0          0          0          1
0690006880       IRREGULAR    0          0          0          0          1
0688006860       IRREGULAR    0          0          0          0          1
06860THALC       IRREGULAR    0          0          0          0          1
36"              CIRCULAR     3.00       0          0          0          1
0676006740       IRREGULAR    0          0          0          0          1
0674006720       IRREGULAR    0          0          0          0          1
0672006700       IRREGULAR    0          0          0          0          1
0670006650       IRREGULAR    0          0          0          0          1
0665006600       IRREGULAR    0          0          0          0          1
0645006350       IRREGULAR    0          0          0          0          1
S.Split          IRREGULAR    0          0          0          0          1
0635006300       IRREGULAR    0          0          0          0          1
0630006250       IRREGULAR    0          0          0          0          1
0625006200       IRREGULAR    0          0          0          0          1
0620000CVW       IRREGULAR    0          0          0          0          1
00CVW06100       CIRCULAR     3.00       0          0          0          2
0610006050       IRREGULAR    0          0          0          0          1
0605006000       IRREGULAR    0          0          0          0          1
0600005950       IRREGULAR    0          0          0          0          1
0595005900       IRREGULAR    0          0          0          0          1
0590005850       IRREGULAR    0          0          0          0          1
0585005800       IRREGULAR    0          0          0          0          1
0580005750       IRREGULAR    0          0          0          0          1
0575005700       IRREGULAR    0          0          0          0          1
057000650        IRREGULAR    0          0          0          0          1
0565005625       IRREGULAR    0          0          0          0          1
0550005450       IRREGULAR    0          0          0          0          1
rtds             IRREGULAR    0          0          0          0          1
00KRC07260       CIRCULAR     2.00       0          0          0          1
0726007240       TRAPEZOIDAL  3.00       2.00       0          0          1
0724007220       TRAPEZOIDAL  3.00       2.00       0          0          1
00SRL07320       CIRCULAR     1.50       0          0          0          1
0732007300       TRAPEZOIDAL  3.00       2.00       0          0          1
00WBR07380       CIRCULAR     2.00       0          0          0          1
00RTR07480       CIRCULAR     1.00       0          0          0          1
00HLR06780       CIRCULAR     2.00       0          0          0          1
0678006760       CIRCULAR     2.00       0          0          0          1
00OKR06780       CIRCULAR     2.00       0          0          0          1
00AHL06500       CIRCULAR     2.00       0          0          0          1
0650006450       TRAPEZOIDAL  3.00       2.00       0          0          1
00LWD06350       TRAPEZOIDAL  3.00       2.00       0          0          1
VTACD05550       CIRCULAR     1.00       0          0          0          1
0555005500       TRAPEZOIDAL  2.00       2.00       0          0          1
00WBLJSCSB       CIRCULAR     1.50       0          0          0          1
0748007460       IRREGULAR    0          0          0          0          1
07460JSBSC       IRREGULAR    0          0          0          0          1
clack            HORSESHOE    3.50       0          0          0          1
972              CIRCULAR     3.00       0          0          0          1
00ECR06980       CIRCULAR     2.75       0          0          0          1
thsn             RECT_CLOSED  3.00       4.00       0          0          1

[LOSSES]
;;Link           Inlet      Outlet     Average    Flap Gate
;;-------------- ---------- ---------- ---------- ----------
JSCSB07380       0          0          0          NO
0738007360       0          0          0          NO
0730007360       0          0          0          NO
0730007280       0          0          0          NO
0728007220       0          0          0          NO
0722007200       0          0          0          NO
07200MBNRA       0          0          0          NO
24"RCSP          0          0          0          NO
0716007140       0          0          0          NO
0714007120       0          0          0          NO
0712007100       0          0          0          NO
0710007080       0          0          0          NO
0708007060       0          0          0          NO
0706007040       0          0          0          NO
0704000CLR       0          0          0          NO
0698006960       0          0          0          NO
0696006940       0          0          0          NO
0694006920       0          0          0          NO
0690006880       0          0          0          NO
0688006860       0          0          0          NO
06860THALC       0          0          0          NO
36"              0          0          0          NO
0676006740       0          0          0          NO
0674006720       0          0          0          NO
0672006700       0          0          0          NO
0670006650       0          0          0          NO
0665006600       0          0          0          NO
0645006350       0          0          0          NO
S.Split          0          0          0          NO
0635006300       0          0          0          NO
0630006250       0          0          0          NO
0625006200       0          0          0          NO
0620000CVW       0          0          0          NO
00CVW06100       0          0          0          NO
0610006050       0          0          0          NO
0605006000       0          0          0          NO
0600005950       0          0          0          NO
0595005900       0          0          0          NO
0590005850       0          0          0          NO
0585005800       0          0          0          NO
0580005750       0          0          0          NO
0575005700       0          0          0          NO
057000650        0          0          0          NO
0565005625       0          0          0          NO
0550005450       0          0          0          NO
rtds             0          0          0          NO
00KRC07260       0          0          0          NO
0726007240       0          0          0          NO
0724007220       0          0          0          NO
00SRL07320       0          0          0          NO
0732007300       0          0          0          NO
00WBR07380       0          0          0          NO
00RTR07480       0          0          0          NO
00HLR06780       0          0          0          NO
0678006760       0          0          0          NO
00OKR06780       0          0          0          NO
00AHL06500       0          0          0          NO
0650006450       0          0          0          NO
00LWD06350       0          0          0          NO
VTACD05550       0          0          0          NO
0555005500       0          0          0          NO
00WBLJSCSB       0          0          0          NO
0748007460       0          0          0          NO
07460JSBSC       0          0          0          NO
clack            0          0          0          NO
972              0          0          0          NO
00ECR06980       0          0          0          NO
thsn             0          0          0          NO

[COORDINATES]
;;Node           X-Coord            Y-Coord
;;-------------- ------------------ ------------------
WBR              -638005.07         7665386.38        
SRL              -638116.67         7664436.48        
KRC              -637595.89         7663252.19        
RTR              -639336.78         7666188.25        
OKR              -643439.04         7660727.30        
HLR              -643153.21         7658843.04        
AHL              -644636.95         7660773.62        
VTL/ACD          -646011.53         7659143.60        
LWD              -644987.91         7661459.79        
JSC              -638891.73         7665130.51        
07380            -638839.11         7665052.97        
07360            -638639.74         7664619.41        
07300            -638688.01         7664484.12        
07280            -638802.71         7664304.85        
07220            -639046.24         7663963.16        
07200            -639352.22         7663585.22        
MBA/NRA          -639575.15         7663448.98        
07160            -639673.01         7663394.65        
07140            -640111.19         7663048.50        
07120            -640200.35         7663040.50        
07100            -640357.00         7663032.51        
07080            -640438.93         7662800.74        
07060            -640701.61         7662692.85        
07040            -641008.84         7662564.85        
06980            -641201.09         7662538.81        
06960            -641368.83         7662454.28        
06940            -641606.91         7662337.24        
06920            -641839.16         7662195.22        
06900            -641924.68         7662118.87        
06880            -642769.78         7661543.48        
06860            -643151.31         7661472.58        
THR/ALC          -643440.93         7661314.22        
06760            -643539.61         7661336.25        
06740            -643770.79         7661358.11        
06720            -643941.91         7661419.95        
06700            -644159.11         7661363.56        
06650            -644501.36         7661261.70        
06600            -644622.02         7661108.91        
06450            -644826.60         7661117.34        
06350            -645038.86         7661123.46        
06300            -645173.96         7661168.95        
06250            -645479.91         7661186.34        
06200            -645721.18         7661163.15        
CVW              -645838.32         7660877.59        
06100            -645857.96         7660776.31        
06050            -645926.44         7660533.44        
06000            -646044.90         7660342.88        
05950            -646161.82         7660269.50        
05900            -646210.23         7660188.07        
05850            -646291.15         7660136.11        
05800            -646365.44         7660089.26        
05750            -646376.12         7659996.10        
05700            -646266.89         7659782.67        
05650            -646354.01         7659510.56        
05625            -646273.97         7659352.85        
05500            -646272.66         7659212.98        
05450            -646391.52         7658878.56        
07260            -637807.87         7663209.73        
07240            -638631.59         7663541.45        
07320            -638421.20         7664439.03        
07460            -639072.67         7665515.16        
07480            -639116.31         7666218.64        
06780            -643524.41         7660765.47        
06500            -644684.67         7660827.46        
05550            -646102.65         7659120.06        
WBL              -639305.06         7664780.93        
CLR              -641150.34         7662558.61        
SBL              -638981.12         7666945.48        
ECR              -641224.98         7663294.84        

[MAP]
DIMENSIONS -646391.52 7658843.04 -637595.89 7666945.48
Units      None

[REPORT]
INPUT            YES
SUBCATCHMENTS    ALL
NODES            ALL
LINKS            ALL



