;; SWMM5 .inp converted from XPSWMM .xp file
;; Generated by XPSWMM Card Reader
;; Source format: XP_CARD | Original title: Test Run

[TITLE]
;;Project Title/Notes
Test Run

[OPTIONS]
FLOW_UNITS           CMS
INFILTRATION         HORTON
FLOW_ROUTING         DYNWAVE
LINK_OFFSETS         DEPTH
MIN_SLOPE            0.0
ALLOW_PONDING        NO
SKIP_STEADY_STATE    NO
ROUTING_STEP         00:00:15
VARIABLE_STEP        0.75
INERTIAL_DAMPING     NONE
NORMAL_FLOW_LIMITED  BOTH
MAX_TRIALS           50
HEAD_TOLERANCE       .001

[JUNCTIONS]
;;Name           Elev       MaxDepth   InitDepth  SurDepth   Aponded
;;-------------- ---------- ---------- ---------- ---------- ----------
os00600          59.13      0          0          0          0
bd00200          62.36      0          0          0          0
bd00100          61.72      0          0          0          0
ah01200          61.66      0          0          0          0
aw00200          64.22      0          0          0          0
aw00100          62.42      0          0          0          0
ra00800          62.18      0          0          0          0
ra00700          61.57      0          0          0          0
ra00600          60.96      0          0          0          0
ra00500          59.13      0          0          0          0
ra00400          57.00      0          0          0          0
ra00300          55.47      0          0          0          0
ra00200          54.86      0          0          0          0
ra00100          51.29      0          0          0          0
ah01100          61.72      0          0          0          0
ah01000          62.12      0          0          0          0
ah00900          62.30      0          0          0          0
ah00800          62.03      0          0          0          0
ah00700          61.33      0          0          0          0
ah00600          61.57      0          0          0          0
ah00500          62.12      0          0          0          0
ah00400          62.48      0          0          0          0
ah00300          62.30      0          0          0          0
ah00200          64.65      0          0          0          0
ah00100          64.65      0          0          0          0
os00500          68.58      0          0          0          0
os00450          87.90      0          0          0          0
rc00900          80.77      0          0          0          0
rc00800          80.44      0          0          0          0
rc00700          80.47      0          0          0          0
rc00600          80.19      0          0          0          0
rc00500          80.10      0          0          0          0
rc00400          79.98      0          0          0          0
rc00300          79.86      0          0          0          0
rc00200          81.32      0          0          0          0
rc00100          82.11      0          0          0          0
nr00500          85.25      0          0          0          0
nr00400          83.70      0          0          0          0
nr00300          83.79      0          0          0          0
nr00200          83.97      0          0          0          0
vv00100          88.39      0          0          0          0
nr00100          84.12      0          0          0          0
no00600          83.65      0          0          0          0
no00500          79.46      0          0          0          0
no00400          77.54      0          0          0          0
no00300          77.05      0          0          0          0
no00200          73.53      0          0          0          0
no00100          54.68      0          0          0          0
os00400          83.82      0          0          0          0
os00300          65.64      0          0          0          0
os00200          56.39      0          0          0          0
os00100          52.58      0          0          0          0
ROPEC            52.58      0          0          0          0
cd00200          87.60      0          0          0          0
cd00100          87.00      0          0          0          0
rx00100          53.57      0          0          0          0
am00100          54.00      0          0          0          0
rp00100          53.57      0          0          0          0
rp00200          54.00      0          0          0          0
rp00300          54.86      0          0          0          0
rz00100          54.00      0          0          0          0
cd00300          87.60      0          0          0          0
temp             82.00      0          0          0          0

[CONDUITS]
;;Name           From             To               Length     Roughness  InOffset   OutOffset  InitFlow   MaxFlow
;;-------------- ---------------- ---------------- ---------- ---------- ---------- ---------- ---------- ----------
bd20-bd10        bd00200          bd00100          78.33      0.0130     59.26      59.09      0          0
ra80-ra70        ra00800          ra00700          96.00      0.0130     59.68      58.15      0          0
ra70-ra60        ra00700          ra00600          70.10      0.0130     58.15      57.01      0          0
ra60-ra50        ra00600          ra00500          187.50     0.0130     57.01      55.87      0          0
ra50-ra40        ra00500          ra00400          149.40     0.0130     55.87      54.50      0          0
ra40-ra30        ra00400          ra00300          129.50     0.0130     54.50      53.63      0          0
ra30-ra20        ra00300          ra00200          160.00     0.0130     53.63      52.42      0          0
ra20-ra10        ra00200          ra00100          152.40     0.0130     52.42      49.93      0          0
ah12-ah11        ah01200          ah01100          9.02       0.0130     58.75      58.70      0          0
ah11-ah19        ah01100          ah01000          59.41      0.0130     58.70      58.62      0          0
ah19-ah90        ah01000          ah00900          60.53      0.0130     58.62      58.54      0          0
ah90-ah80        ah00900          ah00800          99.52      0.0130     58.39      58.31      0          0
ah80-ah70        ah00800          ah00700          98.51      0.0130     58.31      57.98      0          0
ah70-ah60        ah00700          ah00600          60.35      0.0130     57.98      57.96      0          0
ah60-ah50        ah00600          ah00500          59.56      0.0130     57.96      57.98      0          0
ah50-ah40        ah00500          ah00400          33.41      0.0130     57.98      57.69      0          0
ah40-ah30        ah00400          ah00300          52.91      0.0130     57.69      57.55      0          0
ah30-ah20        ah00300          ah00200          27.22      0.0130     57.55      57.49      0          0
ah20-ah10        ah00200          ah00100          86.35      0.0130     57.49      57.49      0          0
os50-os45        os00500          os00450          1049.73    0.0130     37.16      36.22      0          0
rc90-rc80        rc00900          rc00800          8.78       0.0130     78.77      78.72      0          0
rc80-rc70        rc00800          rc00700          51.60      0.0130     78.75      78.57      0          0
rc70-rc60        rc00700          rc00600          83.94      0.0130     78.57      78.32      0          0
rc60-rc50        rc00600          rc00500          28.53      0.0130     78.32      78.23      0          0
rc50-rc40        rc00500          rc00400          44.81      0.0130     78.23      78.11      0          0
rc40-rc30        rc00400          rc00300          89.89      0.0130     78.11      77.82      0          0
rc30-rc20        rc00300          rc00200          84.64      0.0130     77.79      77.54      0          0
rc20-rc10        rc00200          rc00100          81.14      0.0130     77.54      77.29      0          0
nr50-nr40        nr00500          nr00400          23.80      0.0130     82.34      82.11      0          0
nr40-nr30        nr00400          nr00300          27.05      0.0130     82.11      81.79      0          0
nr30-nr20        nr00300          nr00200          108.08     0.0130     81.79      80.67      0          0
no60-no50        no00600          no00500          88.39      0.0130     80.40      78.07      0          0
no50-no40        no00500          no00400          27.43      0.0130     78.07      76.24      0          0
no40-no30        no00400          no00300          93.57      0.0130     76.24      72.10      0          0
no30-no20        no00300          no00200          44.81      0.0130     72.10      67.40      0          0
no20-no10        no00200          no00100          47.24      0.0130     67.40      52.43      0          0
os40-os30        os00400          os00300          398.68     0.0130     35.27      34.90      0          0
os30-os20        os00300          os00200          431.90     0.0130     34.90      34.51      0          0
os20-os10        os00200          os00100          1090.57    0.0130     34.53      33.53      0          0
os60-os50        os00600          os00500          1529.49    0.0130     38.55      37.16      0          0
bd10-ah12        bd00100          ah01200          38.71      0.0130     59.09      58.98      0          0
ah12-ra70        ah01200          ra00700          45.11      0.0130     58.98      58.15      0          0
aw20-aw10        aw00200          aw00100          205.70     0.0130     61.88      60.30      0          0
aw10-ra80        aw00100          ra00800          137.20     0.0130     60.30      59.68      0          0
aw10-ah90        aw00100          ah00900          54.25      0.0130     60.07      59.75      0          0
ah10-os50        ah00100          os00500          1.00       0.0130     57.49      57.16      0          0
os45-os40        os00450          os00400          524.87     0.0130     36.22      35.27      0          0
rc10-os40        rc00100          os00400          84.00      0.0130     77.29      77.04      0          0
nr20-nr10        nr00200          nr00100          33.04      0.0130     80.67      80.29      0          0
vv10-nr10        vv00100          nr00100          74.10      0.0130     85.60      80.68      0          0
nr10-no60        nr00100          no00600          57.91      0.0130     80.68      80.40      0          0
nr10-os40        nr00100          os00400          5.97       0.0130     79.32      79.16      0          0
os10-ww10        os00100          ROPEC            710.42     0.0130     33.53      30.59      0          0
th20-th10        cd00200          cd00100          110.50     0.0140     83.97      83.63      0          0
th10-os45        cd00100          os00450          100.30     0.0140     83.59      83.27      0          0
rc9rp3           rc00900          rp00300          272.00     0.0140     79.23      52.58      0          0
119              rp00300          rp00200          340.00     0.0140     52.58      50.88      0          0
120              rp00100          rx00100          2.40       0.0140     50.47      50.44      0          0
121              rp00200          rp00100          82.00      0.0140     50.88      50.47      0          0
am10-rp10        am00100          rp00100          100.00     0.0140     50.97      50.47      0          0
RCAF-Ovfl        rp00100          rz00100          100.00     0.0140     50.78      50.28      0          0
cd30-cd20        cd00300          cd00200          110.30     0.0140     84.29      83.97      0          0
dummy            temp             rc00900          100.00     0.0140     79.53      79.23      0          0

[PUMPS]
;;Name           From             To               PumpCurve  Status   Startup    Shutoff
;;-------------- ---------------- ---------------- ---------- -------- ---------- ----------
rx1rc9           rx00100          rc00900          PC_rx1rc9  ON       0          0         

[CURVES]
;;Name           Type       X-Value    Y-Value
;;-------------- ---------- ---------- ----------
PC_rx1rc9        Pump1      0          0
;

[XSECTIONS]
;;Link           Shape        Geom1      Geom2      Geom3      Geom4      Barrels
;;-------------- ------------ ---------- ---------- ---------- ---------- ----------
bd20-bd10        CIRCULAR     0.53       0          0          0          1
ra80-ra70        CIRCULAR     0.91       0          0          0          1
ra70-ra60        CIRCULAR     0.91       0          0          0          1
ra60-ra50        CIRCULAR     0.91       0          0          0          1
ra50-ra40        CIRCULAR     0.91       0          0          0          1
ra40-ra30        CIRCULAR     0.91       0          0          0          1
ra30-ra20        CIRCULAR     1.07       0          0          0          1
ra20-ra10        CIRCULAR     1.07       0          0          0          1
ah12-ah11        CIRCULAR     0.30       0          0          0          1
ah11-ah19        CIRCULAR     0.30       0          0          0          1
ah19-ah90        CIRCULAR     0.30       0          0          0          1
ah90-ah80        CIRCULAR     0.36       0          0          0          1
ah80-ah70        CIRCULAR     0.36       0          0          0          1
ah70-ah60        CIRCULAR     0.36       0          0          0          1
ah60-ah50        CIRCULAR     0.36       0          0          0          1
ah50-ah40        CIRCULAR     0.36       0          0          0          1
ah40-ah30        CIRCULAR     0.36       0          0          0          1
ah30-ah20        CIRCULAR     0.36       0          0          0          1
ah20-ah10        CIRCULAR     0.38       0          0          0          1
os50-os45        CIRCULAR     2.44       0          0          0          1
rc90-rc80        CIRCULAR     0.30       0          0          0          1
rc80-rc70        CIRCULAR     0.30       0          0          0          1
rc70-rc60        CIRCULAR     0.30       0          0          0          1
rc60-rc50        CIRCULAR     0.30       0          0          0          1
rc50-rc40        CIRCULAR     0.30       0          0          0          1
rc40-rc30        CIRCULAR     0.30       0          0          0          1
rc30-rc20        CIRCULAR     0.30       0          0          0          1
rc20-rc10        CIRCULAR     0.30       0          0          0          1
nr50-nr40        CIRCULAR     0.23       0          0          0          1
nr40-nr30        CIRCULAR     0.23       0          0          0          1
nr30-nr20        CIRCULAR     0.23       0          0          0          1
no60-no50        CIRCULAR     0.76       0          0          0          1
no50-no40        CIRCULAR     0.76       0          0          0          1
no40-no30        CIRCULAR     0.76       0          0          0          1
no30-no20        CIRCULAR     0.76       0          0          0          1
no20-no10        CIRCULAR     0.61       0          0          0          1
os40-os30        CIRCULAR     2.44       0          0          0          1
os30-os20        CIRCULAR     2.44       0          0          0          1
os20-os10        CIRCULAR     2.44       0          0          0          1
os60-os50        CIRCULAR     2.44       0          0          0          1
bd10-ah12        CIRCULAR     0.61       0          0          0          1
ah12-ra70        CIRCULAR     0.61       0          0          0          1
aw20-aw10        CIRCULAR     0.91       0          0          0          1
aw10-ra80        CIRCULAR     0.91       0          0          0          1
aw10-ah90        CIRCULAR     0.23       0          0          0          1
ah10-os50        CIRCULAR     0.38       0          0          0          1
os45-os40        CIRCULAR     2.44       0          0          0          1
rc10-os40        CIRCULAR     0.30       0          0          0          1
nr20-nr10        CIRCULAR     0.23       0          0          0          1
vv10-nr10        CIRCULAR     0.76       0          0          0          1
nr10-no60        CIRCULAR     0.76       0          0          0          1
nr10-os40        CIRCULAR     0.30       0          0          0          1
os10-ww10        CIRCULAR     2.44       0          0          0          1
th20-th10        CIRCULAR     0.38       0          0          0          1
th10-os45        CIRCULAR     0.38       0          0          0          1
rc9rp3           CIRCULAR     0.30       0          0          0          1
119              CIRCULAR     0.38       0          0          0          1
120              CIRCULAR     0.30       0          0          0          1
121              CIRCULAR     1.22       0          0          0          1
am10-rp10        CIRCULAR     0.30       0          0          0          1
RCAF-Ovfl        CIRCULAR     1.22       0          0          0          1
cd30-cd20        CIRCULAR     0.38       0          0          0          1
dummy            CIRCULAR     0.45       0          0          0          1

[LOSSES]
;;Link           Inlet      Outlet     Average    Flap Gate
;;-------------- ---------- ---------- ---------- ----------
bd20-bd10        0          0          0          NO
ra80-ra70        0          0          0          NO
ra70-ra60        0          0          0          NO
ra60-ra50        0          0          0          NO
ra50-ra40        0          0          0          NO
ra40-ra30        0          0          0          NO
ra30-ra20        0          0          0          NO
ra20-ra10        0          0          0          NO
ah12-ah11        0          0          0          NO
ah11-ah19        0          0          0          NO
ah19-ah90        0          0          0          NO
ah90-ah80        0          0          0          NO
ah80-ah70        0          0          0          NO
ah70-ah60        0          0          0          NO
ah60-ah50        0          0          0          NO
ah50-ah40        0          0          0          NO
ah40-ah30        0          0          0          NO
ah30-ah20        0          0          0          NO
ah20-ah10        0          0          0          NO
os50-os45        0          0          0          NO
rc90-rc80        0          0          0          NO
rc80-rc70        0          0          0          NO
rc70-rc60        0          0          0          NO
rc60-rc50        0          0          0          NO
rc50-rc40        0          0          0          NO
rc40-rc30        0          0          0          NO
rc30-rc20        0          0          0          NO
rc20-rc10        0          0          0          NO
nr50-nr40        0          0          0          NO
nr40-nr30        0          0          0          NO
nr30-nr20        0          0          0          NO
no60-no50        0          0          0          NO
no50-no40        0          0          0          NO
no40-no30        0          0          0          NO
no30-no20        0          0          0          NO
no20-no10        0          0          0          NO
os40-os30        0          0          0          NO
os30-os20        0          0          0          NO
os20-os10        0          0          0          NO
os60-os50        0          0          0          NO
bd10-ah12        0          0          0          NO
ah12-ra70        0          0          0          NO
aw20-aw10        0          0          0          NO
aw10-ra80        0          0          0          NO
aw10-ah90        0          0          0          NO
ah10-os50        0          0          0          NO
os45-os40        0          0          0          NO
rc10-os40        0          0          0          NO
nr20-nr10        0          0          0          NO
vv10-nr10        0          0          0          NO
nr10-no60        0          0          0          NO
nr10-os40        0          0          0          NO
os10-ww10        0          0          0          NO
th20-th10        0          0          0          NO
th10-os45        0          0          0          NO
rc9rp3           0          0          0          NO
119              0          0          0          NO
120              0          0          0          NO
121              0          0          0          NO
am10-rp10        0          0          0          NO
RCAF-Ovfl        0          0          0          NO
cd30-cd20        0          0          0          NO
dummy            0          0          0          NO

[INFLOWS]
;;Node           Constituent  Time Series      Type     Mfactor  Sfactor  Baseline Pattern
;;-------------- ------------ ---------------- -------- -------- -------- -------- --------
bd00200          FLOW         ""               FLOW     1.0      1.0      0.02
aw00200          FLOW         ""               FLOW     1.0      1.0      0.01
nr00500          FLOW         ""               FLOW     1.0      1.0      0.00
vv00100          FLOW         ""               FLOW     1.0      1.0      0.01
cd00200          FLOW         ""               FLOW     1.0      1.0      0.01
am00100          FLOW         ""               FLOW     1.0      1.0      0.00
cd00300          FLOW         ""               FLOW     1.0      1.0      0.01

[COORDINATES]
;;Node           X-Coord            Y-Coord
;;-------------- ------------------ ------------------
os00600          -5033520.36        369742.33         
bd00200          -5034576.36        371252.64         
bd00100          -5034603.36        371321.64         
ah01200          -5034623.36        371356.64         
aw00200          -5034324.16        371513.30         
aw00100          -5034520.36        371456.64         
ra00800          -5034582.36        371438.64         
ra00700          -5034659.36        371364.64         
ra00600          -5034705.36        371318.64         
ra00500          -5034845.36        371200.64         
ra00400          -5034955.36        371100.64         
ra00300          -5035051.36        371014.64         
ra00200          -5035168.36        370906.64         
ra00100          -5035287.36        370797.64         
ah01100          -5034618.36        371365.64         
ah01000          -5034565.36        371383.64         
ah00900          -5034505.36        371404.64         
ah00800          -5034409.36        371381.64         
ah00700          -5034315.36        371359.64         
ah00600          -5034254.36        371368.64         
ah00500          -5034198.36        371376.64         
ah00400          -5034163.36        371363.64         
ah00300          -5034120.36        371332.64         
ah00200          -5034094.36        371341.64         
ah00100          -5033978.86        371297.64         
os00500          -5033863.36        371253.64         
os00450          -5034416.46        372401.20         
rc00900          -5034951.00        372680.32         
rc00800          -5034959.57        372754.64         
rc00700          -5034969.57        372801.64         
rc00600          -5034997.36        372881.16         
rc00500          -5035003.36        372910.16         
rc00400          -5035014.74        372948.02         
rc00300          -5035031.98        373020.57         
rc00200          -5034938.81        373058.84         
rc00100          -5034870.36        373093.68         
nr00500          -5034810.36        373315.64         
nr00400          -5034811.36        373274.64         
nr00300          -5034806.36        373239.64         
nr00200          -5034748.36        373141.64         
vv00100          -5034724.29        373067.64         
nr00100          -5034775.94        373120.64         
no00600          -5034807.36        373151.64         
no00500          -5034889.36        373232.64         
no00400          -5034922.36        373261.64         
no00300          -5034985.53        373260.64         
no00200          -5035042.36        373259.64         
no00100          -5035088.36        373259.64         
os00400          -5034768.01        373133.64         
os00300          -5034961.35        373475.64         
os00200          -5035100.36        373905.64         
os00100          -5035352.36        374947.64         
ROPEC            -5035453.35        375597.63         
cd00200          -5034331.16        372555.54         
cd00100          -5034286.39        372453.61         
rx00100          -5035260.24        372379.11         
am00100          -5035264.36        372197.64         
rp00100          -5035264.36        372344.87         
rp00200          -5035149.96        372347.64         
rp00300          -5035127.76        372684.12         
rz00100          -5035590.16        372386.74         
cd00300          -5034376.16        372656.44         
temp             -5034849.05        372657.48         

[MAP]
DIMENSIONS -5035590.16 369742.33 -5033520.36 375597.63
Units      None

[REPORT]
INPUT            YES
SUBCATCHMENTS    ALL
NODES            ALL
LINKS            ALL



