;; SWMM5 .inp converted from XPSWMM .xp file
;; Generated by XPSWMM Card Reader
;; Source format: XP_CARD | Original title: WILLAKENZIE BASIN STORM DRAINAGE MODEL

[TITLE]
;;Project Title/Notes
WILLAKENZIE BASIN STORM DRAINAGE MODEL

[OPTIONS]
FLOW_UNITS           CFS
INFILTRATION         HORTON
FLOW_ROUTING         DYNWAVE
LINK_OFFSETS         DEPTH
MIN_SLOPE            0.0
ALLOW_PONDING        NO
SKIP_STEADY_STATE    NO
ROUTING_STEP         00:00:07
VARIABLE_STEP        0.75
INERTIAL_DAMPING     PARTIAL
NORMAL_FLOW_LIMITED  BOTH

[JUNCTIONS]
;;Name           Elev       MaxDepth   InitDepth  SurDepth   Aponded
;;-------------- ---------- ---------- ---------- ---------- ----------
61142            425.80     0          0          0          0
61140            423.80     0          0          0          0
67043            421.94     0          0          0          0
59421            422.00     0          0          0          0
59462            423.50     0          0          0          0
66880            421.00     0          0          0          0
60890            425.00     0          0          0          0
61133            424.80     0          0          0          0
61235            427.80     0          0          0          0
61183            428.90     0          0          0          0
61199            427.40     0          0          0          0
99575            426.58     0          0          0          0
59420            419.50     0          0          0          0
59476            422.30     0          0          0          0
59385            421.43     0          0          0          0
59497            419.20     0          0          0          0
59401            420.29     0          0          0          0
62750            428.90     0          0          0          0
62712            430.00     0          0          0          0
62688            430.00     0          0          0          0
62685            431.00     0          0          0          0
62684            430.00     0          0          0          0
67095            428.00     0          0          0          0
61049            428.00     0          0          0          0
61087            424.50     0          0          0          0
61086            424.68     0          0          0          0
61085            425.34     0          0          0          0
71109            423.57     0          0          0          0
71108            423.50     0          0          0          0
61030            428.00     0          0          0          0
66590            423.40     0          0          0          0
66212            425.00     0          0          0          0
61213            423.10     0          0          0          0
59519            418.90     0          0          0          0
67893            418.35     0          0          0          0
59426            419.70     0          0          0          0
59546            419.00     0          0          0          0
59495            421.00     0          0          0          0
59545            420.60     0          0          0          0
69048            423.50     0          0          0          0
68227            421.70     0          0          0          0
67912            420.60     0          0          0          0
59518            419.30     0          0          0          0
59425            418.00     0          0          0          0
59774            417.00     0          0          0          0
59428            416.79     0          0          0          0
71239            427.00     0          0          0          0
71240            421.50     0          0          0          0

[CONDUITS]
;;Name           From             To               Length     Roughness  InOffset   OutOffset  InitFlow   MaxFlow
;;-------------- ---------------- ---------------- ---------- ---------- ---------- ---------- ---------- ----------
wknb090a.p       wknb090a.s       61140            1037.00    0.0150     414.56     413.70     0          0
wknb100c.p       wknb100c.s       59462            30.00      0.0190     412.51     412.27     0          0
wknb100b.p       wknb100b.s       66880            47.00      0.0170     411.37     410.80     0          0
wknb100a.p       wknb100a.s       67043            130.00     0.0260     410.80     410.54     0          0
wknb100d.p       wknb100d.s       59421            905.00     0.0160     413.76     412.51     0          0
wknb180b.c       wknb180b.s       61183            480.00     0.0140     419.60     418.10     0          0
wknb180a.c       wknb180a.s       61199            1214.00    0.0150     418.10     416.40     0          0
wknb160a.p       wknb160a.s       99575            1201.00    0.0240     415.40     414.28     0          0
wknb120b.c       wk120b.s         60890            1458.00    0.0240     414.28     413.50     0          0
wknb120a.p       wknb120a.s       61133            130.00     0.0140     413.50     412.98     0          0
wknb110c.p       wknb110c.s       59420            1337.00    0.0150     412.98     411.19     0          0
wknb110b.p       wknb110b.s       59476            110.00     0.0140     411.35     411.20     0          0
wknb110a.p       wknb110a.s       59385            120.00     0.0140     411.20     409.90     0          0
wknb070a.p       wknb070a.s       59401            880.00     0.0160     411.70     410.63     0          0
wknb200a.p       wknb200a.s       62712            262.00     0.0140     422.82     422.43     0          0
wknb190h.1       wknb190h.2       wknb190h.s       1.00       0.0140     0          0          0          0
WKNB190G         62688            62685            470.00     0          422.27     421.57     0          0
wknb190F.1       wknb190F.2       wknb190F.3       75.00      0.0300     421.57     421.45     0          0
WKNB190E         62684            67095            400.00     0          421.45     420.85     0          0
WKNB190D.1       WKNB190D.2       wkNB190D.s       42.00      0.0380     420.85     420.66     0          0
WKNB190C         61049            61087            340.00     0          420.66     418.95     0          0
WKNB190B         61087            61086            620.00     0          418.95     418.42     0          0
wknb190a.c       wknb190a.s       61085            68.00      0.0290     418.42     418.34     0          0
WKNB280E         61085            71109            350.00     0          418.34     418.17     0          0
wkNB280d         wk280d-fl        71108            620.00     0          418.17     418.31     0          0
WKNB280C         71108            61030            250.00     0          418.31     418.50     0          0
wknb150b.c       wknb150b.s       66590            532.00     0.0160     418.50     413.90     0          0
wknb150a.c       wknb150a.s       66212            591.00     0.0140     413.90     413.20     0          0
wknb140a.c       wknb140a.s       61213            701.00     0.0140     413.20     412.50     0          0
wk250h.clv       wk250h.st        59519            2545.00    0.0140     412.40     407.70     0          0
wknb060b.c       wknb060b.s       67893            1043.00    0.0150     407.70     407.60     0          0
wknb060a.c       wknb060a.s       59426            340.00     0.0170     407.60     407.10     0          0
wknb050d.c       wknb050d.s       59495            34.00      0.0160     413.55     413.45     0          0
wknb050c.c       wknb050c.s       59546            656.00     0.0140     413.49     412.60     0          0
wknb050g.c       wknb050g.s       68227            169.00     0.0180     418.50     415.20     0          0
wknb050f.c       wknb050f.s       67912            920.00     0.0140     415.20     414.00     0          0
wknb050e.c       wknb050e.s       59545            148.00     0.0140     414.00     413.55     0          0
wknb050b.c       wknb050b.s       59518            436.00     0.0150     412.23     410.90     0          0
wknb050a.c       wknb050a.s       59519            105.00     0.0180     410.90     408.00     0          0
WKNB030C.1       WKNB030C.2       wknb030c.s       603.00     0.0190     407.10     406.00     0          0
WKNB030B         59425            59774            1300.00    0          405.73     403.01     0          0
WKNB060D         59401            59428            1100.00    0          410.19     408.79     0          0
WKNB060C         59428            59426            580.00     0          408.79     407.47     0          0
WKNB100F         71239            71240            150.00     0          421.17     415.88     0          0
WKNB100E         71240            67043            1930.00    0          415.88     411.84     0          0
WKNB110D         67043            59385            400.00     0          411.84     411.33     0          0
WKNB060E         59385            59401            900.00     0          411.33     410.19     0          0

[XSECTIONS]
;;Link           Shape        Geom1      Geom2      Geom3      Geom4      Barrels
;;-------------- ------------ ---------- ---------- ---------- ---------- ----------
wknb090a.p       CIRCULAR     4.00       0          0          0          1
wknb100c.p       CIRCULAR     5.00       0          0          0          1
wknb100b.p       CIRCULAR     5.00       0          0          0          1
wknb100a.p       CIRCULAR     6.00       0          0          0          1
wknb100d.p       CIRCULAR     5.00       0          0          0          1
wknb180b.c       CIRCULAR     3.50       0          0          0          1
wknb180a.c       CIRCULAR     4.00       0          0          0          1
wknb160a.p       CIRCULAR     5.00       0          0          0          1
wknb120b.c       CIRCULAR     5.50       0          0          0          1
wknb120a.p       CIRCULAR     5.50       0          0          0          1
wknb110c.p       CIRCULAR     6.00       0          0          0          1
wknb110b.p       CIRCULAR     6.00       0          0          0          1
wknb110a.p       CIRCULAR     6.00       0          0          0          1
wknb070a.p       CIRCULAR     4.50       0          0          0          1
wknb200a.p       CIRCULAR     3.00       0          0          0          1
wknb190h.1       CIRCULAR     1.00       0          0          0          1
WKNB190G         IRREGULAR    0          0          0          0          1
wknb190F.1       CIRCULAR     4.00       0          0          0          1
WKNB190E         IRREGULAR    0          0          0          0          1
WKNB190D.1       CIRCULAR     4.00       0          0          0          1
WKNB190C         IRREGULAR    0          0          0          0          1
WKNB190B         IRREGULAR    0          0          0          0          1
wknb190a.c       CIRCULAR     3.50       0          0          0          1
WKNB280E         IRREGULAR    0          0          0          0          1
wkNB280d         IRREGULAR    0          0          0          0          1
WKNB280C         IRREGULAR    0          0          0          0          1
wknb150b.c       CIRCULAR     3.50       0          0          0          1
wknb150a.c       CIRCULAR     3.50       0          0          0          1
wknb140a.c       CIRCULAR     4.50       0          0          0          1
wk250h.clv       CIRCULAR     4.50       0          0          0          1
wknb060b.c       CIRCULAR     5.50       0          0          0          1
wknb060a.c       CIRCULAR     0.10       0          0          0          1
wknb050d.c       CIRCULAR     3.00       0          0          0          1
wknb050c.c       CIRCULAR     3.50       0          0          0          1
wknb050g.c       CIRCULAR     3.50       0          0          0          1
wknb050f.c       RECT_CLOSED  3.00       5.00       0          0          1
wknb050e.c       RECT_CLOSED  3.00       5.00       0          0          1
wknb050b.c       CIRCULAR     3.00       0          0          0          1
wknb050a.c       CIRCULAR     3.50       0          0          0          1
WKNB030C.1       CIRCULAR     6.00       0          0          0          1
WKNB030B         IRREGULAR    0          0          0          0          1
WKNB060D         IRREGULAR    0          0          0          0          1
WKNB060C         IRREGULAR    0          0          0          0          1
WKNB100F         IRREGULAR    0          0          0          0          1
WKNB100E         IRREGULAR    0          0          0          0          1
WKNB110D         IRREGULAR    0          0          0          0          1
WKNB060E         IRREGULAR    0          0          0          0          1

[LOSSES]
;;Link           Inlet      Outlet     Average    Flap Gate
;;-------------- ---------- ---------- ---------- ----------
wknb090a.p       0          0          0          NO
wknb100c.p       0          0          0          NO
wknb100b.p       0          0          0          NO
wknb100a.p       0          0          0          NO
wknb100d.p       0          0          0          NO
wknb180b.c       0          0          0          NO
wknb180a.c       0          0          0          NO
wknb160a.p       0          0          0          NO
wknb120b.c       0          0          0          NO
wknb120a.p       0          0          0          NO
wknb110c.p       0          0          0          NO
wknb110b.p       0          0          0          NO
wknb110a.p       0          0          0          NO
wknb070a.p       0          0          0          NO
wknb200a.p       0          0          0          NO
wknb190h.1       0          0          0          NO
WKNB190G         0          0          0          NO
wknb190F.1       0          0          0          NO
WKNB190E         0          0          0          NO
WKNB190D.1       0          0          0          NO
WKNB190C         0          0          0          NO
WKNB190B         0          0          0          NO
wknb190a.c       0          0          0          NO
WKNB280E         0          0          0          NO
wkNB280d         0          0          0          NO
WKNB280C         0          0          0          NO
wknb150b.c       0          0          0          NO
wknb150a.c       0          0          0          NO
wknb140a.c       0          0          0          NO
wk250h.clv       0          0          0          NO
wknb060b.c       0          0          0          NO
wknb060a.c       0          0          0          NO
wknb050d.c       0          0          0          NO
wknb050c.c       0          0          0          NO
wknb050g.c       0          0          0          NO
wknb050f.c       0          0          0          NO
wknb050e.c       0          0          0          NO
wknb050b.c       0          0          0          NO
wknb050a.c       0          0          0          NO
WKNB030C.1       0          0          0          NO
WKNB030B         0          0          0          NO
WKNB060D         0          0          0          NO
WKNB060C         0          0          0          NO
WKNB100F         0          0          0          NO
WKNB100E         0          0          0          NO
WKNB110D         0          0          0          NO
WKNB060E         0          0          0          NO

[COORDINATES]
;;Node           X-Coord            Y-Coord
;;-------------- ------------------ ------------------
61142            81.01              124.12            
61140            74.54              125.45            
67043            68.66              124.23            
59421            70.70              122.82            
59462            69.88              123.24            
66880            69.53              123.45            
60890            78.05              119.56            
61133            76.34              119.70            
61235            93.81              129.36            
61183            93.41              125.92            
61199            93.61              120.84            
99575            87.68              118.06            
59420            68.66              120.02            
59476            67.76              120.70            
59385            66.93              121.32            
59497            56.64              117.15            
59401            62.66              114.26            
62750            106.71             125.07            
62712            104.38             123.92            
62688            103.21             122.66            
62685            101.68             121.39            
62684            100.81             120.12            
67095            100.08             118.98            
61049            99.57              117.71            
61087            99.21              116.50            
61086            97.61              111.47            
61085            97.03              110.22            
71109            95.86              107.75            
71108            94.36              105.36            
61030            92.59              103.47            
66590            90.68              100.43            
66212            86.62              100.62            
61213            78.19              104.66            
59519            68.94              104.71            
67893            61.98              104.75            
59426            59.51              105.62            
59546            71.28              107.23            
59495            72.39              108.88            
59545            73.39              109.17            
69048            80.23              111.12            
68227            78.94              110.05            
67912            74.90              109.47            
59518            68.92              105.82            
59425            59.42              103.91            
59774            60.23              93.60             
59428            61.24              110.18            
71239            69.55              137.60            
71240            70.24              136.19            

[MAP]
DIMENSIONS 56.64 93.60 106.71 137.60
Units      None

[REPORT]
INPUT            YES
SUBCATCHMENTS    ALL
NODES            ALL
LINKS            ALL



