;; SWMM5 .inp converted from XPSWMM .xp file
;; Generated by XPSWMM Card Reader
;; Source format: XP_CARD | Original title: SOUTH CENTRAL AVENUE DRAINAGE BASIN STORMWATER STUDY

[TITLE]
;;Project Title/Notes
SOUTH CENTRAL AVENUE DRAINAGE BASIN STORMWATER STUDY

[OPTIONS]
FLOW_UNITS           CFS
INFILTRATION         HORTON
FLOW_ROUTING         DYNWAVE
LINK_OFFSETS         DEPTH
MIN_SLOPE            0.0
ALLOW_PONDING        NO
SKIP_STEADY_STATE    NO
ROUTING_STEP         00:00:05
VARIABLE_STEP        0.75
INERTIAL_DAMPING     PARTIAL
NORMAL_FLOW_LIMITED  BOTH
MAX_TRIALS           30
HEAD_TOLERANCE       0.0033

[JUNCTIONS]
;;Name           Elev       MaxDepth   InitDepth  SurDepth   Aponded
;;-------------- ---------- ---------- ---------- ---------- ----------
5360             1268.50    0          0          0          0
5350             1262.90    0          0          0          0
5340             1258.90    0          0          0          0
5330             1251.30    0          0          0          0
5320             1245.10    0          0          0          0
5310a            1243.00    0          0          0          0
5310             1245.10    0          0          0          0
5300a            1242.34    0          0          0          0
5300             1238.20    0          0          0          0
5000TOUT         1233.65    0          0          0          0
5000OUT          1233.65    0          0          0          0
5270             1259.10    0          0          0          0
5260             1259.20    0          0          0          0
5255             1256.60    0          0          0          0
5250             1255.60    0          0          0          0
5240             1255.00    0          0          0          0
5230a            1262.80    0          0          0          0
5230             1253.00    0          0          0          0
5220             1247.90    0          0          0          0
5210             1245.50    0          0          0          0
5200b            1245.00    0          0          0          0
5200a            1244.20    0          0          0          0
5200             1237.70    0          0          0          0
3930             1268.80    0          0          0          0
3920             1266.20    0          0          0          0
3910             1265.30    0          0          0          0
3900             1266.30    0          0          0          0
3800             1266.40    0          0          0          0
3700             1264.10    0          0          0          0
3600             1264.40    0          0          0          0
3500             1264.20    0          0          0          0
3400a            1262.30    0          0          0          0
3400             1253.70    0          0          0          0
3300a            1245.90    0          0          0          0
3300             1245.30    0          0          0          0
3200             1244.20    0          0          0          0
3100a            1242.50    0          0          0          0
3100             1241.40    0          0          0          0
3000a            1230.80    0          0          0          0
3000OUT          1225.90    0          0          0          0
3940             1268.80    0          0          0          0

[CONDUITS]
;;Name           From             To               Length     Roughness  InOffset   OutOffset  InitFlow   MaxFlow
;;-------------- ---------------- ---------------- ---------- ---------- ---------- ---------- ---------- ----------
535              5360             5350             1477.00    0.0150     1262.30    1256.20    0          0
534              5350             5340             230.00     0.0150     1256.20    1253.10    0          0
533              5340             5330             569.00     0.0150     1253.10    1243.60    0          0
532T             532              5320             1605.00    0.0150     0          0          0          0
531a             5320             5310a            457.00     0.0150     1238.30    1238.00    0          0
531              5310a            5310             240.00     0.0150     1238.00    1238.05    0          0
530a             5310             5300a            260.00     0.0150     1238.05    1238.10    0          0
530              5300a            5300             1056.00    0.0150     1238.10    1231.30    0          0
500T             5300             5000TOUT         903.00     0.0150     1231.30    1226.60    0          0
500              5300             5000OUT          903.00     0.0150     1231.30    1226.60    0          0
526              5270             5260             320.00     0.0150     1255.40    1253.30    0          0
525a             5255             5250             306.00     0.0150     1251.70    1250.70    0          0
525              5260             5250             510.00     0.0150     1253.30    1251.10    0          0
524              5250             5240             180.00     0.0150     1250.70    1250.00    0          0
523a             5240             5230a            110.00     0.0150     1250.00    1249.60    0          0
523T             523              5230             295.00     0.0150     0          0          0          0
522              5230             5220             745.00     0.0150     1247.50    1241.60    0          0
521              5220             5210             693.00     0.0150     1241.60    1239.60    0          0
520b             5210             5200b            524.00     0.0150     1239.60    1238.63    0          0
520a             5200b            5200a            195.00     0.0150     1238.63    1235.90    0          0
520              5200a            5200             1300.00    0.0150     1235.90    1232.00    0          0
392              3930             3920             244.00     0.0150     1263.60    1261.00    0          0
391              3920             3910             240.00     0.0150     1261.00    1260.20    0          0
390              3910             3900             316.00     0.0150     1260.20    1259.70    0          0
380              3900             3800             387.00     0.0150     1259.70    1259.40    0          0
370              3800             3700             240.00     0.0150     1259.40    1258.40    0          0
360              3700             3600             434.00     0.0150     1258.40    1257.40    0          0
350              3600             3500             579.00     0.0150     1257.40    1255.20    0          0
340a             3500             3400a            233.00     0.0150     1255.20    1254.20    0          0
340              3400a            3400             547.00     0.0150     1254.20    1246.50    0          0
330a             3400             3300a            955.00     0.0150     1246.50    1238.90    0          0
330              3300a            3300             159.00     0.0150     1238.90    1238.60    0          0
310a             310aT            3100a            200.00     0.0240     1229.50    1229.10    0          0
310              3100a            3100             500.00     0.0240     1229.10    1228.40    0          0
300a             3100             3000a            2050.00    0.0240     1228.40    1225.30    0          0
300              3000a            3000OUT          300.00     0.0400     1225.30    1220.40    0          0
530x             5200             5300             120.00     0.0150     1232.00    1231.30    0          0
393              3940             3930             10.00      0.0150     1263.70    1263.60    0          0
320              3300             3200             750.00     0.0150     1238.10    1235.40    0          0
3952             3910             5270             680.00     0.0150     1260.30    1255.40    0          0

[XSECTIONS]
;;Link           Shape        Geom1      Geom2      Geom3      Geom4      Barrels
;;-------------- ------------ ---------- ---------- ---------- ---------- ----------
535              CIRCULAR     3.50       0          0          0          1
534              CIRCULAR     3.00       0          0          0          1
533              CIRCULAR     3.00       0          0          0          1
532T             RECT_CLOSED  4.00       6.30       0          0          1
531a             CIRCULAR     3.00       0          0          0          1
531              RECT_CLOSED  3.00       9.00       0          0          1
530a             RECT_CLOSED  3.00       9.00       0          0          1
530              RECT_CLOSED  3.00       9.00       0          0          1
500T             CIRCULAR     5.00       0          0          0          1
500              CIRCULAR     5.00       0          0          0          1
526              CIRCULAR     3.00       0          0          0          1
525a             CIRCULAR     2.00       0          0          0          1
525              RECT_CLOSED  3.00       5.00       0          0          1
524              RECT_CLOSED  3.50       5.00       0          0          1
523a             RECT_CLOSED  3.50       5.00       0          0          1
523T             RECT_CLOSED  3.50       5.00       0          0          1
522              RECT_CLOSED  3.00       6.00       0          0          1
521              RECT_CLOSED  3.00       6.00       0          0          1
520b             RECT_CLOSED  3.00       6.00       0          0          1
520a             CIRCULAR     2.50       0          0          0          1
520              CIRCULAR     2.50       0          0          0          1
392              CIRCULAR     3.50       0          0          0          1
391              CIRCULAR     3.50       0          0          0          1
390              CIRCULAR     3.50       0          0          0          1
380              CIRCULAR     4.00       0          0          0          1
370              CIRCULAR     4.00       0          0          0          1
360              CIRCULAR     4.00       0          0          0          1
350              CIRCULAR     4.00       0          0          0          1
340a             CIRCULAR     3.50       0          0          0          1
340              CIRCULAR     3.00       0          0          0          1
330a             CIRCULAR     3.50       0          0          0          1
330              CIRCULAR     4.50       0          0          0          1
310a             RECT_CLOSED  3.33       5.40       0          0          1
310              CIRCULAR     5.50       0          0          0          1
300a             CIRCULAR     5.50       0          0          0          1
300              CIRCULAR     5.50       0          0          0          1
530x             CIRCULAR     2.50       0          0          0          1
393              CIRCULAR     3.50       0          0          0          1
320              CIRCULAR     4.50       0          0          0          1
3952             CIRCULAR     3.50       0          0          0          1

[LOSSES]
;;Link           Inlet      Outlet     Average    Flap Gate
;;-------------- ---------- ---------- ---------- ----------
535              0          0          0          NO
534              0          0          0          NO
533              0          0          0          NO
532T             0          0          0          NO
531a             0          0          0          NO
531              0          0          0          NO
530a             0          0          0          NO
530              0          0          0          NO
500T             0          0          0          NO
500              0          0          0          NO
526              0          0          0          NO
525a             0          0          0          NO
525              0          0          0          NO
524              0          0          0          NO
523a             0          0          0          NO
523T             0          0          0          NO
522              0          0          0          NO
521              0          0          0          NO
520b             0          0          0          NO
520a             0          0          0          NO
520              0          0          0          NO
392              0          0          0          NO
391              0          0          0          NO
390              0          0          0          NO
380              0          0          0          NO
370              0          0          0          NO
360              0          0          0          NO
350              0          0          0          NO
340a             0          0          0          NO
340              0          0          0          NO
330a             0          0          0          NO
330              0          0          0          NO
310a             0          0          0          NO
310              0          0          0          NO
300a             0          0          0          NO
300              0          0          0          NO
530x             0          0          0          NO
393              0          0          0          NO
320              0          0          0          NO
3952             0          0          0          NO

[COORDINATES]
;;Node           X-Coord            Y-Coord
;;-------------- ------------------ ------------------
5360             321.04             90.03             
5350             325.40             90.14             
5340             329.79             90.25             
5330             333.23             90.69             
5320             337.06             90.63             
5310a            341.65             90.92             
5310             344.78             91.28             
5300a            348.24             91.58             
5300             348.60             85.71             
5000TOUT         355.47             85.59             
5000OUT          355.53             86.87             
5270             311.89             83.59             
5260             315.44             83.95             
5255             319.29             79.47             
5250             319.70             83.96             
5240             322.77             84.37             
5230a            326.08             84.26             
5230             329.12             84.44             
5220             332.03             84.56             
5210             335.03             84.71             
5200b            338.53             85.06             
5200a            341.68             85.22             
5200             344.91             85.53             
3930             306.97             75.71             
3920             310.46             75.95             
3910             313.73             75.99             
3900             318.18             76.24             
3800             321.61             76.26             
3700             324.76             76.55             
3600             327.52             76.56             
3500             330.40             76.60             
3400a            333.68             77.07             
3400             336.78             77.59             
3300a            340.84             77.26             
3300             344.17             77.44             
3200             347.96             77.78             
3100a            351.53             77.65             
3100             354.70             77.87             
3000a            357.87             78.17             
3000OUT          361.35             78.21             
3940             303.02             75.81             

[MAP]
DIMENSIONS 303.02 75.71 361.35 91.58
Units      None

[REPORT]
INPUT            YES
SUBCATCHMENTS    ALL
NODES            ALL
LINKS            ALL



