;; SWMM5 .inp converted from XPSWMM .xp file
;; Generated by XPSWMM Card Reader
;; Source format: XP_CARD | Original title: Wastewater Information Management System : Honolulu

[TITLE]
;;Project Title/Notes
Wastewater Information Management System : Honolulu

[OPTIONS]
FLOW_UNITS           CFS
INFILTRATION         HORTON
FLOW_ROUTING         DYNWAVE
LINK_OFFSETS         DEPTH
MIN_SLOPE            0.0
ALLOW_PONDING        NO
SKIP_STEADY_STATE    NO
ROUTING_STEP         00:00:15
VARIABLE_STEP        0.75
INERTIAL_DAMPING     PARTIAL
NORMAL_FLOW_LIMITED  BOTH
MAX_TRIALS           50
HEAD_TOLERANCE       0.0033

[JUNCTIONS]
;;Name           Elev       MaxDepth   InitDepth  SurDepth   Aponded
;;-------------- ---------- ---------- ---------- ---------- ----------
30530038         17.00      0          0          0          0
30530063         16.88      0          0          0          0
30530134         14.80      0          0          0          0
30530136         14.68      0          0          0          0
30530200         12.50      0          0          0          0
30530221         11.53      0          0          0          0
30530236         11.30      0          0          0          0
30530241         11.70      0          0          0          0
30530243         11.80      0          0          0          0
30530290         7.00       0          0          0          0
30530308         7.00       0          0          0          0
30530396         10.30      0          0          0          0
30530494         11.50      0          0          0          0
30530604         11.60      0          0          0          0
30530715         9.90       0          0          0          0
30531552         12.50      0          0          0          0
30540041         5.06       0          0          0          0
30540097         5.02       0          0          0          0
30540150         6.52       0          0          0          0
30540207         7.92       0          0          0          0
30540270         10.00      0          0          0          0
30540289         8.97       0          0          0          0
30540312         8.97       0          0          0          0
30540331         9.76       0          0          0          0
30540409         7.94       0          0          0          0
30540432         7.00       0          0          0          0
30540458         6.83       0          0          0          0
30540479         6.83       0          0          0          0
30540622         4.81       0          0          0          0
30540745         5.11       0          0          0          0
30540912         6.08       0          0          0          0
30541077         9.98       0          0          0          0
30541204         12.40      0          0          0          0
30541434         8.35       0          0          0          0
30541441         7.66       0          0          0          0
27520121         10.01      0          0          0          0
27520232         7.92       0          0          0          0
27520546         9.12       0          0          0          0
27520560         7.20       0          0          0          0
27520578         6.81       0          0          0          0
27520697         6.14       0          0          0          0
27520797         7.87       0          0          0          0
27520887         6.05       0          0          0          0
27521026         6.06       0          0          0          0
27521158         6.52       0          0          0          0
27521335         6.14       0          0          0          0
27530144         8.56       0          0          0          0
27530172         8.55       0          0          0          0
27530191         8.57       0          0          0          0
27530197         8.96       0          0          0          0
27530206         8.95       0          0          0          0
27530229         9.50       0          0          0          0
27530268         9.48       0          0          0          0
27530312         9.69       0          0          0          0
27530334         9.42       0          0          0          0
27530373         9.29       0          0          0          0
27530400         9.31       0          0          0          0
27530443         9.46       0          0          0          0
27530495         9.22       0          0          0          0
27530552         10.86      0          0          0          0
27530580         11.51      0          0          0          0
27530647         11.50      0          0          0          0
27530677         12.05      0          0          0          0
27530693         12.26      0          0          0          0
27530751         12.05      0          0          0          0
27530780         12.12      0          0          0          0
27530852         10.84      0          0          0          0
28520128         5.73       0          0          0          0
28520280         7.70       0          0          0          0
28520371         8.00       0          0          0          0
28520574         8.76       0          0          0          0
28520701         8.65       0          0          0          0
28520733         8.61       0          0          0          0
28520787         8.51       0          0          0          0
28520862         8.32       0          0          0          0
28520988         8.00       0          0          0          0
28521120         8.40       0          0          0          0
28521166         8.22       0          0          0          0
28521269         7.79       0          0          0          0
28521316         7.60       0          0          0          0
28521361         7.45       0          0          0          0
28521461         7.00       0          0          0          0
28521562         7.00       0          0          0          0
28521626         7.04       0          0          0          0
28521764         6.40       0          0          0          0
28521830         7.13       0          0          0          0
28521873         7.70       0          0          0          0
28521963         8.55       0          0          0          0
28521980         8.62       0          0          0          0
28522075         8.92       0          0          0          0
28522174         8.44       0          0          0          0
28530050         9.68       0          0          0          0
28530069         9.84       0          0          0          0
28530178         10.76      0          0          0          0
28530242         10.59      0          0          0          0
28530320         9.29       0          0          0          0
28530342         9.21       0          0          0          0
28530462         9.00       0          0          0          0
28530542         8.63       0          0          0          0
28530644         8.69       0          0          0          0
28530717         9.04       0          0          0          0
28530770         9.40       0          0          0          0
28530809         9.62       0          0          0          0
28530910         9.36       0          0          0          0
28530977         9.36       0          0          0          0
28531133         12.04      0          0          0          0
28531190         10.92      0          0          0          0
28531322         10.04      0          0          0          0
28531383         9.94       0          0          0          0
28531497         8.98       0          0          0          0
28531605         9.39       0          0          0          0
28531639         9.34       0          0          0          0
28531740         9.94       0          0          0          0
28531844         10.38      0          0          0          0
28532007         10.66      0          0          0          0
28532028         10.47      0          0          0          0
28532120         9.31       0          0          0          0
28532303         7.80       0          0          0          0
28532445         7.90       0          0          0          0
28532556         7.90       0          0          0          0
28532640         7.90       0          0          0          0
28532791         8.90       0          0          0          0
28532887         8.50       0          0          0          0
28540032         9.40       0          0          0          0
28540039         9.23       0          0          0          0
28540070         8.14       0          0          0          0
28540097         5.04       0          0          0          0
28540102         9.18       0          0          0          0
28540120         7.66       0          0          0          0
28540128         8.63       0          0          0          0
28540140         6.25       0          0          0          0
28540142         8.48       0          0          0          0
28540147         7.59       0          0          0          0
28540176         8.69       0          0          0          0
28540178         11.31      0          0          0          0
28540227         12.47      0          0          0          0
28540241         11.24      0          0          0          0
29520076         8.60       0          0          0          0
29520078         8.48       0          0          0          0
29520118         7.81       0          0          0          0
29520144         6.60       0          0          0          0
29520190         5.90       0          0          0          0
29520209         4.50       0          0          0          0
29520241         26.20      0          0          0          0
29520242         34.70      0          0          0          0
29520243         42.20      0          0          0          0
29520244         51.20      0          0          0          0
29520245         53.40      0          0          0          0
29520246         55.70      0          0          0          0
29520248         63.20      0          0          0          0
29520254         71.20      0          0          0          0
29520258         74.00      0          0          0          0
29530494         5.80       0          0          0          0
29530561         7.80       0          0          0          0
29530590         0          0          0          0          0
29530599         6.60       0          0          0          0
29530606         10.00      0          0          0          0
29530611         9.63       0          0          0          0
29530614         9.20       0          0          0          0
29530615         9.58       0          0          0          0
29530620         10.30      0          0          0          0
29530635         8.62       0          0          0          0
29530641         12.40      0          0          0          0
29530643         12.50      0          0          0          0
29530655         13.20      0          0          0          0
29530679         14.50      0          0          0          0
29530683         9.40       0          0          0          0
29530697         15.60      0          0          0          0
29530700         8.29       0          0          0          0
29530705         6.72       0          0          0          0
29530710         17.60      0          0          0          0
29530727         6.24       0          0          0          0
29530765         7.16       0          0          0          0
29530781         5.06       0          0          0          0
29530826         8.20       0          0          0          0
29530827         8.60       0          0          0          0
29530828         8.60       0          0          0          0
29530852         11.80      0          0          0          0
29530864         7.60       0          0          0          0
29530900         6.20       0          0          0          0
29530901         11.60      0          0          0          0
29530942         7.20       0          0          0          0
29531026         8.10       0          0          0          0
29531035         7.30       0          0          0          0
29531039         7.39       0          0          0          0
29531109         7.95       0          0          0          0
29531185         6.11       0          0          0          0
29531220         12.78      0          0          0          0
29540053         5.42       0          0          0          0
29540097         11.76      0          0          0          0
29540120         6.31       0          0          0          0
29540121         6.63       0          0          0          0
29540142         5.23       0          0          0          0
29540164         11.97      0          0          0          0
29540175         4.85       0          0          0          0
29540231         11.83      0          0          0          0
29540284         6.15       0          0          0          0
29540319         9.82       0          0          0          0
29540328         6.62       0          0          0          0
29540341         8.49       0          0          0          0
29540357         6.16       0          0          0          0
29540361         12.00      0          0          0          0
29540374         8.11       0          0          0          0
29540407         6.49       0          0          0          0
29540447         7.48       0          0          0          0
29540466         11.16      0          0          0          0
29540471         9.11       0          0          0          0
29540476         7.95       0          0          0          0
29540542         11.36      0          0          0          0
29540608         9.82       0          0          0          0
29540716         9.12       0          0          0          0
29540872         8.49       0          0          0          0
29540973         8.68       0          0          0          0
29541113         8.80       0          0          0          0
29541136         7.56       0          0          0          0
29541377         5.99       0          0          0          0
29541383         7.00       0          0          0          0
29541427         6.83       0          0          0          0
29541429         7.20       0          0          0          0
29541466         6.31       0          0          0          0
29541632         6.03       0          0          0          0
29541828         6.90       0          0          0          0
29542022         4.73       0          0          0          0
29542174         6.27       0          0          0          0
29542277         4.79       0          0          0          0
29550002         38.80      0          0          0          0
29550009         32.30      0          0          0          0
29550015         20.10      0          0          0          0
29550018         13.40      0          0          0          0
29550108         8.49       0          0          0          0
29550128         38.00      0          0          0          0
29550165         8.91       0          0          0          0
29550173         8.76       0          0          0          0
29550178         8.88       0          0          0          0
29550203         8.67       0          0          0          0
29550234         8.49       0          0          0          0
29550258         8.43       0          0          0          0
29550297         8.27       0          0          0          0
29550349         8.39       0          0          0          0
29550383         7.86       0          0          0          0
29550427         8.06       0          0          0          0
29550469         7.90       0          0          0          0
29550501         7.93       0          0          0          0
29550531         7.69       0          0          0          0
29550581         7.39       0          0          0          0
29550636         8.54       0          0          0          0
kk01xa1860       9.20       0          0          0          0

[CONDUITS]
;;Name           From             To               Length     Roughness  InOffset   OutOffset  InitFlow   MaxFlow
;;-------------- ---------------- ---------------- ---------- ---------- ---------- ---------- ---------- ----------
4075             30530241         30530236         38.00      0.0130     -8.11      -8.13      0          0
4073             30530308         30530290         64.18      0.0130     -7.80      -7.86      0          0
1640             30530715         30530604         300.00     0.0130     -6.60      -6.90      0          0
4070             30531552         30530134         279.00     0.0130     -8.46      -8.72      0          0
1343             30530396         30530308         300.00     0.0130     -7.50      -7.80      0          0
1415             30530494         30530396         300.00     0.0130     -7.20      -7.50      0          0
1021             30530038         29531220         216.00     0.0130     -9.20      -9.42      0          0
1048             30530063         30530038         84.00      0.0130     -9.12      -9.20      0          0
1122             30530136         30530063         300.00     0.0130     -8.82      -9.12      0          0
1123             30530134         30530136         9.00       0.0130     -8.72      -8.73      0          0
1190             30530200         30531552         12.00      0.0130     -8.45      -8.46      0          0
1196             30530221         30530200         150.00     0.0130     -8.31      -8.45      0          0
1233             30530236         30530221         210.00     0.0130     -8.13      -8.31      0          0
1235             30530243         30530241         14.00      0.0130     -8.10      -8.11      0          0
1281             30530290         30530243         234.00     0.0130     -7.86      -8.10      0          0
1497             30530604         30530494         300.00     0.0130     -6.90      -7.20      0          0
58170            29531039         29531035         19.00      0.0130     -10.51     -10.78     0          0
54954            28540142         28540128         112.67     0.0130     -6.85      -6.89      0          0
57888            29530679         29530655         140.00     0.0130     7.03       5.49       0          0
57889            29530683         29530635         280.33     0.0130     -12.47     -12.68     0          0
57901            29530700         29530683         212.10     0.0130     -12.31     -12.47     0          0
57905            29530705         29530700         221.27     0.0130     -12.18     -12.31     0          0
57909            29530710         29530697         136.00     0.0130     10.00      8.50       0          0
57925            29530727         29530705         300.00     0.0130     -11.96     -12.18     0          0
57950            29530765         29530727         300.00     0.0130     -11.74     -11.95     0          0
57962            29530781         29530765         300.22     0.0130     -11.54     -11.74     0          0
57997            29530826         29530781         300.00     0.0130     -11.49     -11.54     0          0
57862            29530643         29530641         30.00      0.0130     4.52       4.19       0          0
57999            29530852         29530828         180.00     0.0130     -11.38     -11.47     0          0
57860            29530641         29530620         201.00     0.0130     4.19       0.92       0          0
58228            29531109         29531039         271.50     0.0130     -10.15     -10.51     0          0
58284            29531185         29531109         263.83     0.0130     -9.99      -10.15     0          0
58314            29531220         29531185         300.00     0.0130     -9.42      -9.72      0          0
58353            29530561         29530590         267.42     0.0130     -13.20     -13.50     0          0
58354            29530828         29530827         13.00      0.0130     -11.47     -11.48     0          0
58355            29531035         29531026         30.00      0.0130     -10.78     -10.80     0          0
58362            29530599         29530590         67.00      0.0130     -13.40     -13.50     0          0
58363            29530697         29530679         134.00     0.0130     8.50       7.03       0          0
61018            29540053         28540241         182.00     0.0130     -4.38      -4.56      0          0
61050            29540097         28540227         300.00     0.0130     -4.83      -5.33      0          0
61065            29540120         29540121         66.41      0.0130     -1.89      -1.96      0          0
54959            28540147         28540120         129.16     0.0130     -5.01      -5.14      0          0
61105            29540175         29540142         120.40     0.0130     -1.65      -1.77      0          0
57998            29530827         29530826         25.00      0.0130     -11.48     -11.49     0          0
55815            29520244         29520243         313.00     0.0130     44.00      36.80      0          0
54982            28540178         28540147         117.21     0.0130     -4.89      -5.01      0          0
55013            28540227         28540176         191.83     0.0130     -5.33      -5.85      0          0
55019            28540241         28540178         289.87     0.0130     -4.56      -4.89      0          0
55021            28540120         28540097         224.84     0.0130     -5.14      -5.36      0          0
55707            29520078         29520076         20.44      0.0130     -4.80      -4.81      0          0
55732            29520118         29520078         338.00     0.0130     -4.62      -4.80      0          0
55750            29520144         29520118         212.71     0.0130     -4.51      -4.62      0          0
55780            29520190         29520144         372.51     0.0130     -3.52      -3.97      0          0
55793            29520209         29520190         200.00     0.0130     -3.28      -3.52      0          0
55812            29520241         29530710         345.00     0.0130     17.00      10.00      0          0
57870            29530655         29530643         88.00      0.0130     5.49       4.52       0          0
55814            29520243         29520242         192.00     0.0130     31.80      25.75      0          0
61143            29540164         29540097         220.25     0.0130     -4.43      -4.83      0          0
55816            29520245         29520244         72.00      0.0130     44.80      44.00      0          0
55817            29520246         29520245         66.00      0.0130     45.53      44.80      0          0
55819            29520248         29520246         211.00     0.0130     53.18      46.53      0          0
55827            29520254         29520248         240.00     0.0130     63.20      56.86      0          0
55830            29520258         29520254         73.00      0.0130     64.00      63.20      0          0
57434            29520076         28532887         572.00     0.0130     -4.81      -5.12      0          0
57758            29530494         29520209         171.12     0.0130     -3.07      -3.28      0          0
KRdFM  Rd        29530590         29530494         950.00     0.0130     -13.50     -3.07      0          0
57835            29530606         29530561         313.87     0.0130     -13.00     -13.20     0          0
57838            29530611         29530606         40.00      0.0130     -12.87     -12.88     0          0
57841            29530615         29530611         54.58      0.0130     -12.82     -12.87     0          0
57845            29530614         29530599         218.30     0.0130     -5.02      -11.90     0          0
57855            29530635         29530615         213.84     0.0130     -12.68     -12.82     0          0
55813            29520242         29520241         214.00     0.0130     24.75      18.00      0          0
64411            29550349         29550297         256.08     0.0130     -2.41      -3.23      0          0
61082            29540142         29540120         124.43     0.0130     -1.77      -1.89      0          0
64178            29550002         29550009         204.00     0.0130     32.50      26.00      0          0
64184            29550009         29550015         230.00     0.0130     26.00      14.00      0          0
64189            29550015         29550018         88.00      0.0130     14.00      7.00       0          0
64246            29550108         29550128         80.00      0.0130     -6.06      -6.50      0          0
64288            29550165         29550108         335.59     0.0130     -5.39      -6.06      0          0
64294            29550173         29550165         75.44      0.0130     -5.24      -5.39      0          0
64298            29550178         29550173         58.21      0.0130     -5.12      -5.24      0          0
64315            29550203         29550178         152.00     0.0130     -4.83      -5.12      0          0
64337            29550234         29550203         161.01     0.0130     -4.51      -4.83      0          0
62686            29550018         29540319         142.00     0.0130     7.00       3.82       0          0
64378            29550297         29550258         214.09     0.0130     -3.23      -3.92      0          0
62641            29542277         29542174         201.72     0.0130     -8.98      -9.18      0          0
64432            29550383         29550349         204.00     0.0130     -1.84      -2.41      0          0
64458            29550427         29550383         213.62     0.0130     -1.24      -1.84      0          0
64485            29550469         29550427         227.55     0.0130     -0.60      -1.24      0          0
64504            29550501         29550469         187.54     0.0130     -0.07      -0.60      0          0
64524            29550531         29550501         200.00     0.0130     0.49       -0.07      0          0
64583            29550581         29550531         215.00     0.0130     1.09       0.49       0          0
64591            29550636         29550581         250.00     0.0130     1.74       1.09       0          0
800039           29530864         29530852         110.70     0.0130     -11.32     -11.38     0          0
800042           29530620         29530614         125.19     0.0130     -0.08      -4.02      0          0
800043           29531026         29530942         336.02     0.0130     -10.80     -10.96     0          0
800044           29530942         29530901         336.07     0.0130     -10.96     -11.13     0          0
800045           29530901         29530900         96.58      0.0130     -11.13     -11.18     0          0
800046           29530900         29530864         280.74     0.0130     -11.18     -11.32     0          0
64353            29550258         29550234         167.55     0.0130     -3.92      -4.51      0          0
61452            29540716         29540608         227.00     0.0130     -2.73      -3.23      0          0
61198            29540319         29540341         68.00      0.0130     3.82       1.79       0          0
61204            29540328         29540284         128.00     0.0130     -0.78      -1.10      0          0
61213            29540341         29540374         75.00      0.0130     1.79       1.61       0          0
61222            29540357         29540328         95.27      0.0130     -0.54      -0.78      0          0
61224            29540361         29540231         223.20     0.0130     -3.90      -4.19      0          0
61233            29540374         29540471         200.00     0.0130     1.61       1.11       0          0
61255            29540407         29540357         133.73     0.0130     -0.21      -0.54      0          0
61279            29540447         29540407         117.00     0.0130     0.08       -0.21      0          0
61292            29540466         29540361         189.15     0.0130     -3.66      -3.90      0          0
61294            29540471         29540542         150.12     0.0130     1.11       0.73       0          0
61297            29540476         29540447         69.00      0.0130     0.25       0.08       0          0
62692            29540231         29540164         163.00     0.0130     -4.19      -4.43      0          0
61382            29540608         29540466         265.14     0.0130     -3.23      -3.66      0          0
61176            29540284         29540175         297.00     0.0130     -1.35      -1.65      0          0
61562            29540872         29540716         230.00     0.0130     -2.34      -2.73      0          0
61631            29540973         29540872         230.00     0.0130     -1.84      -2.34      0          0
61730            29541113         29540973         227.83     0.0130     -1.31      -1.84      0          0
995.1            29541136         29541113         300.00     0.0130     -0.74      -1.31      0          0
KhtsFM           29541383         29541136         900.00     0.0130     -11.30     -0.74      0          0
61931            29541377         29541383         21.10      0.0130     -11.11     -11.30     0          0
61970            29541427         29541377         166.45     0.0130     -10.57     -11.11     0          0
61972            29541429         29541427         41.75      0.0130     -10.52     -11.57     0          0
62005            29541466         29541429         150.00     0.0130     -10.39     -10.52     0          0