;; SWMM5 .inp converted from XPSWMM .xp file
;; Generated by XPSWMM Card Reader
;; Source format: XP_CARD | Original title: City of Lancaster CSO Study

[TITLE]
;;Project Title/Notes
City of Lancaster CSO Study

[OPTIONS]
FLOW_UNITS           CFS
INFILTRATION         HORTON
FLOW_ROUTING         DYNWAVE
LINK_OFFSETS         DEPTH
MIN_SLOPE            0.0
ALLOW_PONDING        NO
SKIP_STEADY_STATE    NO
ROUTING_STEP         00:00:15
VARIABLE_STEP        0.75
INERTIAL_DAMPING     PARTIAL
NORMAL_FLOW_LIMITED  BOTH

[JUNCTIONS]
;;Name           Elev       MaxDepth   InitDepth  SurDepth   Aponded
;;-------------- ---------- ---------- ---------- ---------- ----------
14               813.00     0          0          0          0
18               816.50     0          0          0          0
20               814.00     0          0          0          0
22               818.00     0          0          0          0
24               818.50     0          0          0          0
29               815.00     0          0          0          0
31               816.50     0          0          0          0
33               814.64     0          0          0          0
36               819.00     0          0          0          0
38               822.00     0          0          0          0
95               819.00     0          0          0          0
97               820.00     0          0          0          0
99               835.00     0          0          0          0
101              827.00     0          0          0          0
103              827.50     0          0          0          0
111              827.00     0          0          0          0
123              818.10     0          0          0          0
125              818.00     0          0          0          0
126              817.50     0          0          0          0
129              823.00     0          0          0          0
133              813.00     0          0          0          0
135              817.70     0          0          0          0
136              815.00     0          0          0          0
141              815.30     0          0          0          0
142              814.24     0          0          0          0
145              815.00     0          0          0          0
150              815.18     0          0          0          0
159              816.60     0          0          0          0
162              815.50     0          0          0          0
164              806.00     0          0          0          0

[CONDUITS]
;;Name           From             To               Length     Roughness  InOffset   OutOffset  InitFlow   MaxFlow
;;-------------- ---------------- ---------------- ---------- ---------- ---------- ---------- ---------- ----------
19               18               14               120.00     0.0140     800.89     800.83     0          0
21               20               18               130.00     0.0140     801.27     800.89     0          0
23               22               18               40.00      0.0140     803.63     803.55     0          0
25               24               22               80.00      0.0140     805.10     803.65     0          0
32               31               29               210.00     0.0140     801.86     801.75     0          0
34               29               33               610.00     0.0140     801.75     801.36     0          0
35               33               20               290.00     0.0140     801.36     801.27     0          0
37               36               31               1180.00    0.0140     804.36     801.86     0          0
Fetters          38               36               1820.00    0.0140     811.97     804.46     0          0
08               012              018              130.00     0.0140     808.75     805.10     0          0
98               97               95               180.00     0.0140     810.48     808.50     0          0
100              99               97               5340.00    0.0140     825.30     810.48     0          0
104              103              101              530.00     0.0140     812.30     811.50     0          0
113              111              103              460.00     0.0140     813.52     812.30     0          0
124              123              22               50.00      0.0140     803.65     803.63     0          0
127              125              126              40.00      0.0140     803.90     804.00     0          0
128              126              123              90.00      0.0140     804.00     803.65     0          0
130              129              125              945.00     0.0140     807.90     803.90     0          0
134              133              33               390.00     0.0140     805.95     801.63     0          0
137              135              136              490.00     0.0140     809.70     806.81     0          0
138              136              133              300.00     0.0140     806.81     805.99     0          0
143              141              142              450.00     0.0140     807.02     804.64     0          0
144              142              125              180.00     0.0140     804.64     803.90     0          0
146              141              145              30.00      0.0140     807.50     807.00     0          0
152              150              141              200.00     0.0140     808.20     807.02     0          0
160              159              31               40.00      0.0140     807.30     802.90     0          0
163              162              159              350.00     0.0140     808.00     807.30     0          0
165              125              164              100.00     0.0140     805.10     800.50     0          0

[PUMPS]
;;Name           From             To               PumpCurve  Status   Startup    Shutoff
;;-------------- ---------------- ---------------- ---------- -------- ---------- ----------
10"FM            101              99               *          ON       0          0         

[XSECTIONS]
;;Link           Shape        Geom1      Geom2      Geom3      Geom4      Barrels
;;-------------- ------------ ---------- ---------- ---------- ---------- ----------
19               CIRCULAR     4.00       0          0          0          1
21               CIRCULAR     3.00       0          0          0          1
23               CIRCULAR     2.50       0          0          0          1
25               CIRCULAR     2.50       0          0          0          1
32               CIRCULAR     3.00       0          0          0          1
34               CIRCULAR     3.00       0          0          0          1
35               CIRCULAR     3.00       0          0          0          1
37               CIRCULAR     3.00       0          0          0          1
Fetters          CIRCULAR     2.00       0          0          0          1
08               CIRCULAR     0.66       0          0          0          1
98               CIRCULAR     2.50       0          0          0          1
100              CIRCULAR     2.50       0          0          0          1
104              CIRCULAR     2.50       0          0          0          1
113              CIRCULAR     2.50       0          0          0          1
124              CIRCULAR     1.50       0          0          0          1
127              CIRCULAR     1.50       0          0          0          1
128              CIRCULAR     1.50       0          0          0          1
130              CIRCULAR     5.00       0          0          0          1
134              CIRCULAR     1.25       0          0          0          1
137              CIRCULAR     1.00       0          0          0          1
138              CIRCULAR     1.25       0          0          0          1
143              CIRCULAR     0.83       0          0          0          1
144              CIRCULAR     1.50       0          0          0          1
146              CIRCULAR     4.00       0          0          0          1
152              CIRCULAR     2.25       0          0          0          1
160              CIRCULAR     3.00       0          0          0          1
163              CIRCULAR     1.25       0          0          0          1
165              CIRCULAR     5.00       0          0          0          1

[LOSSES]
;;Link           Inlet      Outlet     Average    Flap Gate
;;-------------- ---------- ---------- ---------- ----------
19               0          0          0          NO
21               0          0          0          NO
23               0          0          0          NO
25               0          0          0          NO
32               0          0          0          NO
34               0          0          0          NO
35               0          0          0          NO
37               0          0          0          NO
Fetters          0          0          0          NO
08               0          0          0          NO
98               0          0          0          NO
100              0          0          0          NO
104              0          0          0          NO
113              0          0          0          NO
124              0          0          0          NO
127              0          0          0          NO
128              0          0          0          NO
130              0          0          0          NO
134              0          0          0          NO
137              0          0          0          NO
138              0          0          0          NO
143              0          0          0          NO
144              0          0          0          NO
146              0          0          0          NO
152              0          0          0          NO
160              0          0          0          NO
163              0          0          0          NO
165              0          0          0          NO

[COORDINATES]
;;Node           X-Coord            Y-Coord
;;-------------- ------------------ ------------------
14               91.78              39.73             
18               84.26              43.80             
20               69.24              42.98             
22               83.94              54.24             
24               83.94              74.94             
29               54.54              43.53             
31               54.70              55.95             
33               61.73              43.53             
36               37.57              56.08             
38               28.36              43.24             
95               83.79              89.34             
97               83.79              96.29             
99               83.46              114.34            
101              83.46              125.84            
103              83.46              132.92            
111              83.46              138.14            
123              79.04              55.91             
125              69.23              55.91             
126              74.31              56.47             
129              60.95              32.50             
133              66.87              73.29             
135              61.46              81.84             
136              61.12              72.87             
141              58.75              53.25             
142              65.35              54.51             
145              59.09              56.33             
150              49.96              49.88             
159              54.63              68.95             
162              59.94              70.07             
164              70.42              61.52             

[MAP]
DIMENSIONS 28.36 32.50 91.78 138.14
Units      None

[REPORT]
INPUT            YES
SUBCATCHMENTS    ALL
NODES            ALL
LINKS            ALL



