;; SWMM5 .inp converted from XPSWMM .xp file
;; Generated by XPSWMM Card Reader
;; Source format: XP_CARD | Original title: REGULATOR NC-B1 SEWER SYSTEM - 28-29 AUGUST 1990

[TITLE]
;;Project Title/Notes
REGULATOR NC-B1 SEWER SYSTEM - 28-29 AUGUST 1990

[OPTIONS]
FLOW_UNITS           CFS
INFILTRATION         HORTON
FLOW_ROUTING         DYNWAVE
LINK_OFFSETS         DEPTH
MIN_SLOPE            0.0
ALLOW_PONDING        NO
SKIP_STEADY_STATE    NO
ROUTING_STEP         00:00:01
VARIABLE_STEP        0.75
INERTIAL_DAMPING     NONE
NORMAL_FLOW_LIMITED  BOTH
MAX_TRIALS           60
HEAD_TOLERANCE       0.0033

[JUNCTIONS]
;;Name           Elev       MaxDepth   InitDepth  SurDepth   Aponded
;;-------------- ---------- ---------- ---------- ---------- ----------
40               60.00      0          0          0          0
45               50.00      0          0          0          0
47               50.00      0          0          0          0
49               52.00      0          0          0          0
50               40.00      0          0          0          0
52               38.00      0          0          0          0
57               57.00      0          0          0          0
60               57.00      0          0          0          0
61               44.00      0          0          0          0
56               36.00      0          0          0          0
55               40.00      0          0          0          0
72               13.00      0          0          0          0
62               27.00      0          0          0          0
63               27.00      0          0          0          0
67               25.00      0          0          0          0
89               18.00      0          0          0          0
68               10.00      0          0          0          0
86               15.40      0          0          0          0
41               57.00      0          0          0          0
43               50.00      0          0          0          0
44               50.00      0          0          0          0
46               50.00      0          0          0          0
51               42.00      0          0          0          0
53               34.00      0          0          0          0
54               40.00      0          0          0          0
58               60.00      0          0          0          0
64               25.00      0          0          0          0
91               17.74      0          0          0          0
66               25.00      0          0          0          0
87               30.00      0          0          0          0
88               20.00      0          0          0          0
75               16.40      0          0          0          0
65               16.00      0          0          0          0
85               15.00      0          0          0          0
84               15.00      0          0          0          0
69               10.00      0          0          0          0
70               22.00      0          0          0          0
73               17.00      0          0          0          0
78               17.00      0          0          0          0
71               13.00      0          0          0          0
74               14.50      0          0          0          0
76               13.00      0          0          0          0
77               22.00      0          0          0          0
79               12.00      0          0          0          0
80               10.00      0          0          0          0
42               57.00      0          0          0          0
81               57.00      0          0          0          0
48               50.00      0          0          0          0
82               50.00      0          0          0          0
59               60.00      0          0          0          0
83               57.00      0          0          0          0

[CONDUITS]
;;Name           From             To               Length     Roughness  InOffset   OutOffset  InitFlow   MaxFlow
;;-------------- ---------------- ---------------- ---------- ---------- ---------- ---------- ---------- ----------
500              40               41               500.00     0.0150     33.60      32.90      0          0
510              41               43               900.00     0.0150     32.90      31.50      0          0
520              43               44               230.00     0.0150     31.50      30.00      0          0
530              44               45               740.00     0.0150     30.00      29.10      0          0
540              45               46               1080.00    0.0150     29.10      28.60      0          0
550              46               47               750.00     0.0150     28.60      26.30      0          0
560              47               49               710.00     0.0150     26.30      20.70      0          0
570              49               50               1250.00    0.0150     20.70      20.20      0          0
580              50               51               660.00     0.0150     20.20      19.30      0          0
590              51               52               1810.00    0.0150     19.30      17.50      0          0
600              52               53               610.00     0.0150     17.50      16.20      0          0
610              53               54               1800.00    0.0150     16.20      13.00      0          0
620              54               56               610.00     0.0150     13.00      12.00      0          0
630              55               56               1600.00    0.0150     14.00      12.00      0          0
640              56               62               1220.00    0.0150     12.00      9.73       0          0
650              57               58               800.00     0.0150     46.50      40.00      0          0
660              58               60               1070.00    0.0150     40.00      31.00      0          0
670              60               61               1420.00    0.0150     31.00      20.00      0          0
680              61               62               1320.00    0.0150     20.00      9.73       0          0
690              62               63               1820.00    0.0150     9.73       5.80       0          0
700              702              704              680.00     0.0150     0          0          0          0
710              712              714              560.00     0.0150     0          0          0          0
720              66               67               471.00     0.0150     1.11       -0.79      0          0
722              87               66               420.00     0.0150     2.80       1.11       0          0
724              88               87               690.00     0.0150     3.39       2.80       0          0
726              89               88               720.00     0.0150     4.00       3.39       0          0
730              67               75               798.00     0.0150     -0.79      -4.00      0          0
737              738              739              540.00     0.0150     0          0          0          0
740              742              75               470.00     0.0150     0          0          0          0
744              86               85               521.00     0.0150     1.67       0.60       0          0
746              85               84               560.00     0.0150     0.60       -0.56      0          0
748              84               65               560.00     0.0150     -0.56      -2.90      0          0
750              69               70               1350.00    0.0150     -4.91      -8.05      0          0
760              70               73               1350.00    0.0150     -8.05      -10.64     0          0
770              73               78               200.00     0.0150     -10.64     -10.91     0          0
780              71               72               500.00     0.0150     -0.70      -1.10      0          0
790              72               74               900.00     0.0150     -1.10      -2.55      0          0
800              74               75               850.00     0.0150     -2.55      -4.00      0          0
810              76               77               530.00     0.0150     -13.86     -16.16     0          0
820              78               76               850.00     0.0150     -10.91     -13.86     0          0
830              75               79               100.00     0.0150     -2.00      -5.00      0          0
840              68               80               100.00     0.0150     -2.91      -5.50      0          0
505              42               81               500.00     0.0150     32.90      30.80      0          0
555              48               82               500.00     0.0150     26.30      24.80      0          0
655              59               83               500.00     0.0150     40.00      39.00      0          0

[ORIFICES]
;;Name           From             To               Type       Offset     Qcoeff     Gated    CloseTime
;;-------------- ---------------- ---------------- ---------- ---------- ---------- -------- ----------
MUL5             75               76               SIDE       0          0.650      NO       0
MUL6             68               69               SIDE       0          0.650      NO       0

[WEIRS]
;;Name           From             To               Type       CrestHt    Qcoeff     Gated    EndCon   EndCoeff   Surcharge
;;-------------- ---------------- ---------------- ---------- ---------- ---------- -------- -------- ---------- ----------
MUL7             41               42               V-NOTCH    34.23      1.840      NO       0        0          YES
MUL8             47               48               V-NOTCH    27.63      1.840      NO       0        0          YES
MUL9             58               59               V-NOTCH    40.50      1.840      NO       0        0          YES

[XSECTIONS]
;;Link           Shape        Geom1      Geom2      Geom3      Geom4      Barrels
;;-------------- ------------ ---------- ---------- ---------- ---------- ----------
500              CIRCULAR     4.00       0          0          0          1
510              CIRCULAR     4.00       0          0          0          1
520              CIRCULAR     4.00       0          0          0          1
530              CIRCULAR     4.00       0          0          0          1
540              CIRCULAR     4.50       0          0          0          1
550              CIRCULAR     5.00       0          0          0          1
560              CIRCULAR     5.00       0          0          0          1
570              CIRCULAR     5.50       0          0          0          1
580              CIRCULAR     6.00       0          0          0          1
590              CIRCULAR     6.50       0          0          0          1
600              CIRCULAR     7.00       0          0          0          1
610              CIRCULAR     7.00       0          0          0          1
620              CIRCULAR     7.00       0          0          0          1
630              CIRCULAR     4.00       0          0          0          1
640              CIRCULAR     7.50       0          0          0          1
650              CIRCULAR     3.50       0          0          0          1
660              CIRCULAR     4.00       0          0          0          1
670              CIRCULAR     4.00       0          0          0          1
680              CIRCULAR     4.00       0          0          0          1
690              CIRCULAR     7.50       0          0          0          1
700              RECT_CLOSED  9.17       13.08      0          0          1
710              RECT_CLOSED  9.17       13.08      0          0          1
720              CIRCULAR     5.00       0          0          0          1
722              CIRCULAR     5.00       0          0          0          1
724              RECT_CLOSED  4.25       3.83       0          0          1
726              RECT_CLOSED  4.00       3.67       0          0          1
730              RECT_CLOSED  5.25       7.17       0          0          1
737              RECT_CLOSED  9.17       13.08      0          0          1
740              RECT_CLOSED  10.00      16.00      0          0          1
744              RECT_CLOSED  6.00       6.00       0          0          1
746              RECT_CLOSED  7.00       7.00       0          0          1
748              RECT_CLOSED  7.00       7.00       0          0          1
750              CIRCULAR     2.00       0          0          0          1
760              CIRCULAR     3.00       0          0          0          1
770              CIRCULAR     3.00       0          0          0          1
780              RECT_CLOSED  7.83       8.08       0          0          1
790              RECT_CLOSED  7.83       8.08       0          0          1
800              RECT_CLOSED  7.83       8.08       0          0          1
810              RECT_CLOSED  6.75       6.75       0          0          1
820              CIRCULAR     3.00       0          0          0          1
830              RECT_CLOSED  10.00      32.00      0          0          1
840              CIRCULAR     3.00       0          0          0          1
505              CIRCULAR     9.50       0          0          0          1
555              CIRCULAR     6.50       0          0          0          1
655              CIRCULAR     3.50       0          0          0          1
MUL5             RECT_CLOSED  0          0          0          0          
MUL6             RECT_CLOSED  0          0          0          0          
MUL7             RECT_OPEN    0          4.00       0          0          
MUL8             RECT_OPEN    0          13.70      0          0          
MUL9             RECT_OPEN    0          3.50       0          0          

[LOSSES]
;;Link           Inlet      Outlet     Average    Flap Gate
;;-------------- ---------- ---------- ---------- ----------
500              0          0          0          NO
510              0          0          0          NO
520              0          0          0          NO
530              0          0          0          NO
540              0          0          0          NO
550              0          0          0          NO
560              0          0          0          NO
570              0          0          0          NO
580              0          0          0          NO
590              0          0          0          NO
600              0          0          0          NO
610              0          0          0          NO
620              0          0          0          NO
630              0          0          0          NO
640              0          0          0          NO
650              0          0          0          NO
660              0          0          0          NO
670              0          0          0          NO
680              0          0          0          NO
690              0          0          0          NO
700              0          0          0          NO
710              0          0          0          NO
720              0          0          0          NO
722              0          0          0          NO
724              0          0          0          NO
726              0          0          0          NO
730              0          0          0          NO
737              0          0          0          NO
740              0          0          0          NO
744              0          0          0          NO
746              0          0          0          NO
748              0          0          0          NO
750              0          0          0          NO
760              0          0          0          NO
770              0          0          0          NO
780              0          0          0          NO
790              0          0          0          NO
800              0          0          0          NO
810              0          0          0          NO
820              0          0          0          NO
830              0          0          0          NO
840              0          0          0          NO
505              0          0          0          NO
555              0          0          0          NO
655              0          0          0          NO

[INFLOWS]
;;Node           Constituent  Time Series      Type     Mfactor  Sfactor  Baseline Pattern
;;-------------- ------------ ---------------- -------- -------- -------- -------- --------
40               FLOW         ""               FLOW     1.0      1.0      2.87
45               FLOW         ""               FLOW     1.0      1.0      3.03
47               FLOW         ""               FLOW     1.0      1.0      0.16
49               FLOW         ""               FLOW     1.0      1.0      3.14
50               FLOW         ""               FLOW     1.0      1.0      4.33
52               FLOW         ""               FLOW     1.0      1.0      4.97
57               FLOW         ""               FLOW     1.0      1.0      1.38
60               FLOW         ""               FLOW     1.0      1.0      1.85
61               FLOW         ""               FLOW     1.0      1.0      0.70
56               FLOW         ""               FLOW     1.0      1.0      3.28
55               FLOW         ""               FLOW     1.0      1.0      1.77
62               FLOW         ""               FLOW     1.0      1.0      2.21
63               FLOW         ""               FLOW     1.0      1.0      1.80
89               FLOW         ""               FLOW     1.0      1.0      1.02
68               FLOW         ""               FLOW     1.0      1.0      0.50
86               FLOW         ""               FLOW     1.0      1.0      1.00
64               FLOW         ""               FLOW     1.0      1.0      1.70

[COORDINATES]
;;Node           X-Coord            Y-Coord
;;-------------- ------------------ ------------------
40               401.75             114.25            
45               481.75             114.25            
47               521.75             114.25            
49               541.75             114.25            
50               561.75             114.25            
52               601.75             114.25            
57               681.75             34.25             
60               681.75             74.25             
61               701.75             74.25             
56               661.75             114.25            
55               661.75             134.25            
72               821.75             114.25            
62               721.75             74.25             
63               741.75             74.25             
67               807.61             60.11             
89               751.04             3.54              
68               955.72             108.45            
86               801.75             134.25            
41               421.75             114.25            
43               441.75             114.25            
44               461.75             114.25            
46               501.75             114.25            
51               581.75             114.25            
53               621.75             114.25            
54               641.75             114.25            
58               681.75             54.25             
64               761.75             74.25             
91               781.75             74.25             
66               793.47             45.97             
87               779.32             31.82             
88               765.18             17.68             
75               821.75             74.25             
65               801.75             74.25             
85               801.75             114.25            
84               801.75             94.25             
69               936.93             101.61            
70               918.13             94.77             
73               899.34             87.93             
78               861.75             74.25             
71               821.75             134.25            
74               821.75             94.25             
76               881.75             74.25             
77               901.75             74.25             
79               841.75             74.25             
80               394.90             111.12            
42               961.75             74.25             
81               981.75             74.25             
48               921.75             74.25             
82               941.75             74.25             
59               400.30             116.44            
83               397.68             120.91            

[MAP]
DIMENSIONS 394.90 3.54 981.75 134.25
Units      None

[REPORT]
INPUT            YES
SUBCATCHMENTS    ALL
NODES            ALL
LINKS            ALL



