;; SWMM5 .inp converted from XPSWMM .xp file
;; Generated by XPSWMM Card Reader
;; Source format: XP_CARD | Original title: (none)

[TITLE]
;;Project Title/Notes
Converted from XPSWMM .xp file

[OPTIONS]
FLOW_UNITS           CMS
INFILTRATION         HORTON
FLOW_ROUTING         DYNWAVE
LINK_OFFSETS         DEPTH
MIN_SLOPE            0.0
ALLOW_PONDING        NO
SKIP_STEADY_STATE    NO
ROUTING_STEP         00:00:30
VARIABLE_STEP        0.75
INERTIAL_DAMPING     PARTIAL
NORMAL_FLOW_LIMITED  BOTH
MAX_TRIALS           50

[STORAGE]
;;Name           Elev       MaxDepth   InitDepth  Shape      Curve/Params
;;-------------- ---------- ---------- ---------- ---------- ----------
2                25.00      0          0          FUNCTIONAL 0 0          0
3                25.00      0          0          FUNCTIONAL 0 0          0
5                25.00      0          0          FUNCTIONAL 0 0          0
7                25.00      0          0          FUNCTIONAL 0 0          0
9                25.00      0          0          FUNCTIONAL 0 0          0
11               25.00      0          0          FUNCTIONAL 0 0          0
13               25.00      0          0          FUNCTIONAL 0 0          0
15               25.00      0          0          FUNCTIONAL 0 0          0
17               25.00      0          0          FUNCTIONAL 0 0          0
19               25.00      0          0          FUNCTIONAL 0 0          0
21               25.00      0          0          FUNCTIONAL 0 0          0
23               25.00      0          0          FUNCTIONAL 0 0          0
25               25.00      0          0          FUNCTIONAL 0 0          0
27               25.00      0          0          FUNCTIONAL 0 0          0
29               25.00      0          0          FUNCTIONAL 0 0          0
31               25.00      0          0          FUNCTIONAL 0 0          0
33               25.00      0          0          FUNCTIONAL 0 0          0
35               25.00      0          0          FUNCTIONAL 0 0          0

[CONDUITS]
;;Name           From             To               Length     Roughness  InOffset   OutOffset  InitFlow   MaxFlow
;;-------------- ---------------- ---------------- ---------- ---------- ---------- ---------- ---------- ----------
4                2                3                200.00     0.0140     10.00      10.00      0          0
6                2                5                200.00     0.0140     10.00      10.00      0          0
8                5                7                200.00     0.0140     10.00      10.00      0          0
10               7                9                200.00     0.0140     10.00      10.00      0          0
12               9                11               200.00     0.0140     10.00      10.00      0          0
14               11               13               200.00     0.0140     10.00      10.00      0          0
16               13               15               200.00     0.0140     10.00      10.00      0          0
18               15               17               200.00     0.0140     10.00      10.00      0          0
20               17               19               200.00     0.0140     10.00      10.00      0          0
22               19               21               200.00     0.0140     10.00      10.00      0          0
24               21               23               200.00     0.0140     10.00      10.00      0          0
26               23               25               200.00     0.0140     10.00      10.00      0          0
28               25               27               200.00     0.0140     10.00      10.00      0          0
30               27               29               200.00     0.0140     10.00      10.00      0          0
32               29               31               200.00     0.0140     10.00      10.00      0          0
34               31               33               200.00     0.0140     10.00      10.00      0          0
36               33               35               200.00     0.0140     10.00      10.00      0          0

[XSECTIONS]
;;Link           Shape        Geom1      Geom2      Geom3      Geom4      Barrels
;;-------------- ------------ ---------- ---------- ---------- ---------- ----------
4                TRAPEZOIDAL  4.55       1.00       0          0          1
6                TRAPEZOIDAL  4.55       1.00       0          0          1
8                TRAPEZOIDAL  4.55       1.00       0          0          1
10               TRAPEZOIDAL  4.55       1.00       0          0          1
12               TRAPEZOIDAL  4.55       1.00       0          0          1
14               TRAPEZOIDAL  4.55       1.00       0          0          1
16               TRAPEZOIDAL  4.55       1.00       0          0          1
18               TRAPEZOIDAL  4.55       1.00       0          0          1
20               TRAPEZOIDAL  4.55       1.00       0          0          1
22               TRAPEZOIDAL  4.55       1.00       0          0          1
24               TRAPEZOIDAL  4.55       1.00       0          0          1
26               TRAPEZOIDAL  4.55       1.00       0          0          1
28               TRAPEZOIDAL  4.55       1.00       0          0          1
30               TRAPEZOIDAL  4.55       1.00       0          0          1
32               TRAPEZOIDAL  4.55       1.00       0          0          1
34               TRAPEZOIDAL  4.55       1.00       0          0          1
36               TRAPEZOIDAL  4.55       1.00       0          0          1

[LOSSES]
;;Link           Inlet      Outlet     Average    Flap Gate
;;-------------- ---------- ---------- ---------- ----------
4                0          0          0          NO
6                0          0          0          NO
8                0          0          0          NO
10               0          0          0          NO
12               0          0          0          NO
14               0          0          0          NO
16               0          0          0          NO
18               0          0          0          NO
20               0          0          0          NO
22               0          0          0          NO
24               0          0          0          NO
26               0          0          0          NO
28               0          0          0          NO
30               0          0          0          NO
32               0          0          0          NO
34               0          0          0          NO
36               0          0          0          NO

[COORDINATES]
;;Node           X-Coord            Y-Coord
;;-------------- ------------------ ------------------
2                36.83              109.71            
3                44.64              114.80            
5                40.54              120.64            
7                39.90              126.16            
9                56.15              119.47            
11               51.42              116.50            
13               47.84              109.07            
15               53.72              108.65            
17               62.81              102.92            
19               50.27              99.31             
21               50.65              95.38             
23               45.66              97.29             
25               37.73              95.17             
27               32.23              94.75             
29               36.07              88.48             
31               39.90              82.75             
33               47.84              86.89             
35               55.77              84.66             

[MAP]
DIMENSIONS 32.23 82.75 62.81 126.16
Units      None

[REPORT]
INPUT            YES
SUBCATCHMENTS    ALL
NODES            ALL
LINKS            ALL



