;; SWMM5 .inp converted from XPSWMM .xp file
;; Generated by XPSWMM Card Reader
;; Source format: XP_CARD | Original title: SWMM RUNOFF-EXTRAN SIMULATIE VAN RIOOLSTELSELS, MAARTENSDIJK

[TITLE]
;;Project Title/Notes
SWMM RUNOFF-EXTRAN SIMULATIE VAN RIOOLSTELSELS, MAARTENSDIJK

[OPTIONS]
FLOW_UNITS           CMS
INFILTRATION         HORTON
FLOW_ROUTING         DYNWAVE
LINK_OFFSETS         DEPTH
MIN_SLOPE            0.0
ALLOW_PONDING        NO
SKIP_STEADY_STATE    NO
ROUTING_STEP         00:00:01
VARIABLE_STEP        0.75
INERTIAL_DAMPING     NONE
NORMAL_FLOW_LIMITED  BOTH
MAX_TRIALS           30

[JUNCTIONS]
;;Name           Elev       MaxDepth   InitDepth  SurDepth   Aponded
;;-------------- ---------- ---------- ---------- ---------- ----------
220550           1.97       0          0          0          0
220551           1.64       0          0          0          0
220552           2.00       0          0          0          0
220553           1.98       0          0          0          0
220969           2.01       0          0          0          0
220554           1.92       0          0          0          0
220555           1.87       0          0          0          0
220556           1.98       0          0          0          0
220557           1.94       0          0          0          0
220558           2.10       0          0          0          0
220559           2.04       0          0          0          0
220560           2.22       0          0          0          0
220562           2.12       0          0          0          0
220831           2.02       0          0          0          0
220563           2.19       0          0          0          0
220564           2.37       0          0          0          0
220565           2.60       0          0          0          0
220826           1.91       0          0          0          0
220566           2.86       0          0          0          0
220567           2.75       0          0          0          0
220568           2.51       0          0          0          0
220825           2.32       0          0          0          0
220569           2.24       0          0          0          0
220570           2.02       0          0          0          0
220723           1.94       0          0          0          0
220571           2.05       0          0          0          0
220572           2.09       0          0          0          0
220574           2.18       0          0          0          0
220603           2.00       0          0          0          0
220575           2.31       0          0          0          0
220600           1.97       0          0          0          0
220576           2.33       0          0          0          0
220577           2.28       0          0          0          0
220578           2.13       0          0          0          0
220579           2.20       0          0          0          0
220580           2.21       0          0          0          0
220581           2.25       0          0          0          0
220582           2.21       0          0          0          0
220583           2.27       0          0          0          0
220584           2.23       0          0          0          0
220585           2.50       0          0          0          0
220586           2.31       0          0          0          0
220593           2.48       0          0          0          0
220587           2.47       0          0          0          0
220588           2.49       0          0          0          0
220589           2.20       0          0          0          0
220590           2.34       0          0          0          0
220591           2.33       0          0          0          0
220592           2.26       0          0          0          0
220594           2.19       0          0          0          0
220595           2.15       0          0          0          0
220596           2.17       0          0          0          0
220597           2.17       0          0          0          0
220598           2.12       0          0          0          0
220599           2.12       0          0          0          0
220601           1.99       0          0          0          0
220602           1.96       0          0          0          0
220604           2.05       0          0          0          0
220605           2.02       0          0          0          0
220606           2.07       0          0          0          0
220607           2.02       0          0          0          0
220608           2.06       0          0          0          0
220609           2.07       0          0          0          0
220732           2.11       0          0          0          0
220610           1.99       0          0          0          0
220611           2.01       0          0          0          0
220735           2.00       0          0          0          0
220612           1.98       0          0          0          0
220613           2.03       0          0          0          0
220738           2.12       0          0          0          0
220614           2.01       0          0          0          0
220615           1.99       0          0          0          0
220742           1.97       0          0          0          0
220616           2.19       0          0          0          0
220618           2.09       0          0          0          0
220619           2.20       0          0          0          0
220620           2.22       0          0          0          0
220632           2.01       0          0          0          0
220631           1.99       0          0          0          0
220652           2.09       0          0          0          0
220633           2.00       0          0          0          0
220634           2.00       0          0          0          0
220635           1.99       0          0          0          0
220639           2.32       0          0          0          0
220636           1.98       0          0          0          0
220637           1.99       0          0          0          0
220638           1.99       0          0          0          0
220640           1.99       0          0          0          0
220641           2.04       0          0          0          0
220642           2.02       0          0          0          0
220654           2.06       0          0          0          0
220643           2.06       0          0          0          0
220644           2.01       0          0          0          0
220657           2.04       0          0          0          0
220784           2.03       0          0          0          0
220645           1.99       0          0          0          0
220670           2.03       0          0          0          0
220646           2.00       0          0          0          0
220671           2.02       0          0          0          0
220647           2.04       0          0          0          0
220648           2.05       0          0          0          0
220668           2.03       0          0          0          0
220649           2.09       0          0          0          0
220667           2.01       0          0          0          0
220650           2.07       0          0          0          0
220690           1.92       0          0          0          0
220651           1.99       0          0          0          0
220666           2.01       0          0          0          0
220653           1.98       0          0          0          0
220698           1.87       0          0          0          0
220656           1.98       0          0          0          0
220655           2.02       0          0          0          0
220678           2.00       0          0          0          0
220658           2.01       0          0          0          0
220659           2.00       0          0          0          0
220660           2.01       0          0          0          0
220661           2.01       0          0          0          0
220662           2.00       0          0          0          0
220663           2.00       0          0          0          0
220664           1.98       0          0          0          0
220665           2.02       0          0          0          0
220669           1.99       0          0          0          0
220672           1.99       0          0          0          0
220701           1.98       0          0          0          0
220673           1.91       0          0          0          0
220677           1.93       0          0          0          0
220674           1.97       0          0          0          0
220675           1.91       0          0          0          0
220676           1.96       0          0          0          0
220685           1.95       0          0          0          0
220679           2.00       0          0          0          0
220680           1.96       0          0          0          0
220681           2.00       0          0          0          0
220682           1.94       0          0          0          0
220695           1.94       0          0          0          0
220696           1.91       0          0          0          0
220683           1.97       0          0          0          0
220684           1.95       0          0          0          0
220703           1.97       0          0          0          0
220688           1.94       0          0          0          0
220686           1.96       0          0          0          0
220687           2.00       0          0          0          0
220689           1.99       0          0          0          0
220700           2.00       0          0          0          0
220691           1.91       0          0          0          0
220692           1.87       0          0          0          0
220693           1.86       0          0          0          0
220694           1.95       0          0          0          0
220709           2.01       0          0          0          0
220697           2.01       0          0          0          0
220699           1.87       0          0          0          0
220702           2.02       0          0          0          0
220704           2.02       0          0          0          0
220707           2.03       0          0          0          0
220708           1.99       0          0          0          0
220751           2.07       0          0          0          0
220710           2.02       0          0          0          0
220767           2.00       0          0          0          0
220711           2.01       0          0          0          0
220712           2.03       0          0          0          0
220817           2.01       0          0          0          0
220713           1.98       0          0          0          0
220814           1.97       0          0          0          0
220714           1.96       0          0          0          0
220745           2.03       0          0          0          0
220796           2.14       0          0          0          0
220715           2.10       0          0          0          0
220716           2.05       0          0          0          0
220741           2.10       0          0          0          0
220717           2.00       0          0          0          0
220718           1.94       0          0          0          0
220737           2.02       0          0          0          0
220719           2.16       0          0          0          0
220720           2.11       0          0          0          0
220721           1.95       0          0          0          0
220734           2.07       0          0          0          0
220722           1.94       0          0          0          0
220731           2.06       0          0          0          0
220725           2.06       0          0          0          0
220726           2.08       0          0          0          0
220727           2.07       0          0          0          0
220728           2.08       0          0          0          0
220730           2.08       0          0          0          0
220729           2.07       0          0          0          0
220733           2.06       0          0          0          0
220736           2.02       0          0          0          0
220739           1.98       0          0          0          0
220747           2.02       0          0          0          0
220740           2.10       0          0          0          0
220746           2.04       0          0          0          0
220743           1.99       0          0          0          0
220744           1.97       0          0          0          0
220754           2.31       0          0          0          0
220752           2.05       0          0          0          0
220753           2.00       0          0          0          0
220755           2.27       0          0          0          0
220768           2.01       0          0          0          0
220769           2.00       0          0          0          0
220770           1.99       0          0          0          0
220813           2.03       0          0          0          0
220771           1.98       0          0          0          0
220772           2.00       0          0          0          0
220808           1.97       0          0          0          0
220773           1.99       0          0          0          0
220774           1.98       0          0          0          0
220788           2.00       0          0          0          0
220789           1.99       0          0          0          0
220775           1.98       0          0          0          0
220779           1.96       0          0          0          0
220780           1.96       0          0          0          0
220912           1.97       0          0          0          0
220776           1.99       0          0          0          0
220777           1.96       0          0          0          0
220778           1.96       0          0          0          0
220795           1.94       0          0          0          0
220781           1.94       0          0          0          0
220782           1.96       0          0          0          0
220783           2.08       0          0          0          0
220787           2.12       0          0          0          0
220785           2.03       0          0          0          0
220786           2.07       0          0          0          0
220928           1.90       0          0          0          0
220790           1.98       0          0          0          0
220791           2.00       0          0          0          0
220792           2.06       0          0          0          0
220793           1.99       0          0          0          0
220802           2.02       0          0          0          0
220840           2.03       0          0          0          0
220794           1.99       0          0          0          0
220797           2.22       0          0          0          0
220798           2.09       0          0          0          0
220819           2.22       0          0          0          0
220799           2.02       0          0          0          0
220800           2.01       0          0          0          0
220809           1.99       0          0          0          0
220801           2.03       0          0          0          0
220806           2.01       0          0          0          0
220803           2.15       0          0          0          0
220804           2.01       0          0          0          0
220839           2.06       0          0          0          0
220849           2.03       0          0          0          0
220807           2.01       0          0          0          0
220810           2.02       0          0          0          0
220811           2.03       0          0          0          0
220816           1.99       0          0          0          0
220812           2.03       0          0          0          0
220818           2.01       0          0          0          0
220815           1.96       0          0          0          0
220820           2.16       0          0          0          0
220821           2.12       0          0          0          0
220822           2.21       0          0          0          0
220823           2.21       0          0          0          0
220830           1.89       0          0          0          0
220824           2.26       0          0          0          0
220827           1.89       0          0          0          0
220828           1.84       0          0          0          0
220829           1.84       0          0          0          0
220832           1.99       0          0          0          0
220833           2.00       0          0          0          0
220844           1.99       0          0          0          0
220834           1.99       0          0          0          0
220861           1.99       0          0          0          0
220835           1.98       0          0          0          0
220836           1.99       0          0          0          0
220837           1.99       0          0          0          0
220838           1.99       0          0          0          0
220842           1.99       0          0          0          0
220843           1.99       0          0          0          0
220845           2.00       0          0          0          0
220846           2.01       0          0          0          0
220847           2.01       0          0          0          0
220848           2.01       0          0          0          0
220850           1.99       0          0          0          0
220851           1.99       0          0          0          0
220852           1.99       0          0          0          0
220853           2.01       0          0          0          0
220854           2.06       0          0          0          0
220876           2.02       0          0          0          0
220855           2.14       0          0          0          0
220858           1.99       0          0          0          0
220856           2.19       0          0          0          0
220857           2.18       0          0          0          0
220859           2.01       0          0          0          0
220866           2.02       0          0          0          0
220860           1.99       0          0          0          0
220865           2.07       0          0          0          0
220862           1.98       0          0          0          0
220868           2.06       0          0          0          0
220870           2.08       0          0          0          0
220863           1.98       0          0          0          0
220864           2.08       0          0          0          0
220867           2.03       0          0          0          0
220869           2.09       0          0          0          0
220871           2.08       0          0          0          0
220872           1.99       0          0          0          0
220873           2.02       0          0          0          0
220874           2.05       0          0          0          0
220875           2.04       0          0          0          0
220878           2.08       0          0          0          0
220879           2.02       0          0          0          0
220880           2.07       0          0          0          0
220881           2.07       0          0          0          0
220893           2.02       0          0          0          0
220882           2.10       0          0          0          0
220883           2.04       0          0          0          0
220884           2.14       0          0          0          0
220885           2.01       0          0          0          0
220886           1.98       0          0          0          0
220887           2.00       0          0          0          0
220890           2.02       0          0          0          0
220888           2.02       0          0          0          0
220889           2.04       0          0          0          0
220891           2.03       0          0          0          0
220892           2.03       0          0          0          0
220958           2.06       0          0          0          0
220894           2.09       0          0          0          0
220896           2.00       0          0          0          0
220897           1.99       0          0          0          0
220898           1.86       0          0          0          0
220899           1.85       0          0          0          0
220900           2.04       0          0          0          0
220902           1.87       0          0          0          0
220901           1.98       0          0          0          0
220903           2.05       0          0          0          0
220907           1.98       0          0          0          0
220904           2.02       0          0          0          0
220905           1.98       0          0          0          0
220906           1.99       0          0          0          0
220908           1.99       0          0          0          0
220909           2.03       0          0          0          0
220913           2.01       0          0          0          0
220910           2.07       0          0          0          0
220911           1.99       0          0          0          0
220914           1.97       0          0          0          0
220916           2.00       0          0          0          0
220915           1.92       0          0          0          0
220917           2.04       0          0          0          0
220919           2.00       0          0          0          0
220918           1.98       0          0          0          0
220923           1.97       0          0          0          0
220920           2.00       0          0          0          0
220925           1.97       0          0          0          0
220922           1.96       0          0          0          0
220921           1.94       0          0          0          0
220929           2.02       0          0          0          0
220943           2.13       0          0          0          0
220924           2.10       0          0          0          0
220926           2.09       0          0          0          0
220927           2.07       0          0          0          0
220930           2.03       0          0          0          0
220939           2.00       0          0          0          0
220931           2.05       0          0          0          0
220932           1.99       0          0          0          0
220933           2.03       0          0          0          0
220934           2.01       0          0          0          0
220935           2.02       0          0          0          0
220936           2.01       0          0          0          0
220938           2.06       0          0          0          0
220937           1.98       0          0          0          0
220942           1.98       0          0          0          0
220940           2.02       0          0          0          0
220941           2.00       0          0          0          0
220944           2.02       0          0          0          0
220945           2.02       0          0          0          0
220946           2.02       0          0          0          0
220948           2.03       0          0          0          0
220947           2.00       0          0          0          0
220954           2.02       0          0          0          0
220949           2.04       0          0          0          0
220951           2.20       0          0          0          0
220950           2.04       0          0          0          0
220952           2.06       0          0          0          0
220953           2.06       0          0          0          0
220955           2.08       0          0          0          0
220956           2.04       0          0          0          0
220957           2.02       0          0          0          0
220959           1.99       0          0          0          0
220960           1.92       0          0          0          0
220962           2.00       0          0          0          0
220961           2.12       0          0          0          0
220963           1.99       0          0          0          0
220964           2.01       0          0          0          0
220965           2.03       0          0          0          0
220966           1.95       0          0          0          0
220967           2.13       0          0          0          0
220968           2.13       0          0          0          0
220973           2.78       0          0          0          0
220974           2.63       0          0          0          0
999623           1.00       0          0          0          0
OW0              1.00       0          0          0          0
OW1              1.00       0          0          0          0
OW2              1.00       0          0          0          0

[STORAGE]
;;Name           Elev       MaxDepth   InitDepth  Shape      Curve/Params
;;-------------- ---------- ---------- ---------- ---------- ----------
220561           2.18       0          0          FUNCTIONAL 2.00 0          0
220573           2.27       0          0          FUNCTIONAL 2.00 0          0
220617           2.25       0          0          FUNCTIONAL 2.00 0          0
220621           2.10       0          0          FUNCTIONAL 2.00 0          0
220748           2.15       0          0          FUNCTIONAL 2.00 0          0
220622           2.03       0          0          FUNCTIONAL 2.00 0          0
220975           1.64       0          0          FUNCTIONAL 2.00 0          0
220623           1.65       0          0          FUNCTIONAL 7.00 0          0
220628           2.03       0          0          FUNCTIONAL 3.00 0          0
220624           1.98       0          0          FUNCTIONAL 3.00 0          0
220625           1.97       0          0          FUNCTIONAL 3.00 0          0
220626           1.87       0          0          FUNCTIONAL 3.00 0          0
220627           1.87       0          0          FUNCTIONAL 3.00 0          0
220749           2.03       0          0          FUNCTIONAL 2.00 0          0
220750           2.05       0          0          FUNCTIONAL 2.00 0          0

[CONDUITS]
;;Name           From             To               Length     Roughness  InOffset   OutOffset  InitFlow   MaxFlow
;;-------------- ---------------- ---------------- ---------- ---------- ---------- ---------- ---------- ----------
1001             220550           220551           56.60      0.0130     0.25       0.22       0          0
1002             220551           220552           39.20      0.0130     0.22       0.19       0          0
1003             220552           220553           14.30      0.0130     0.19       0.15       0          0
1004             220969           220552           40.20      0.0130     0.35       0.19       0          0
1005             220553           220554           52.30      0.0130     0.15       0.06       0          0
1006             220554           220555           55.90      0.0130     0.06       0.01       0          0
1007             220555           220556           56.60      0.0130     0.01       -0.01      0          0
1008             220556           220557           55.10      0.0130     -0.01      -0.08      0          0
1009             220557           220558           56.80      0.0130     -0.08      -0.14      0          0
1010             220559           220558           32.80      0.0130     -0.12      -0.14      0          0
1011             220559           220560           50.40      0.0130     -0.12      -0.22      0          0
1012             220561           220560           51.00      0.0130     -0.17      -0.22      0          0
1013             220562           220561           72.70      0.0130     0.77       0.55       0          0
1014             220561           220831           43.10      0.0130     -0.17      -0.21      0          0
1015             220563           220562           55.00      0.0130     0.91       0.77       0          0
1016             220563           220564           55.90      0.0130     0.63       0.49       0          0
1017             220564           220565           39.20      0.0130     0.49       0.39       0          0
1018             220826           220564           47.10      0.0130     0.65       0.58       0          0
1019             220565           220566           37.90      0.0130     0.39       0.28       0          0
1020             220566           220567           41.10      0.0130     0.28       0.11       0          0
1021             220568           220567           36.30      0.0130     0.15       0.11       0          0
1022             220825           220567           45.90      0.0130     1.17       1.10       0          0
1023             220568           220569           37.80      0.0130     0.15       -0.01      0          0
1024             220569           220570           46.20      0.0130     -0.37      -0.48      0          0
1025             220723           220569           50.40      0.0130     0.07       0.05       0          0
1026             220570           220571           45.60      0.0130     -0.48      -0.52      0          0
1027             220571           220572           40.80      0.0130     -0.52      -0.53      0          0