;; SWMM5 .inp converted from XPSWMM .xp file
;; Generated by XPSWMM Card Reader
;; Source format: XP_CARD | Original title: (none)

[TITLE]
;;Project Title/Notes
Converted from XPSWMM .xp file

[OPTIONS]
FLOW_UNITS           CFS
INFILTRATION         HORTON
FLOW_ROUTING         DYNWAVE
LINK_OFFSETS         DEPTH
MIN_SLOPE            0.0
ALLOW_PONDING        NO
SKIP_STEADY_STATE    NO
ROUTING_STEP         00:00:15
VARIABLE_STEP        0.75
INERTIAL_DAMPING     PARTIAL
NORMAL_FLOW_LIMITED  BOTH
MAX_TRIALS           50
HEAD_TOLERANCE       0.0033

[JUNCTIONS]
;;Name           Elev       MaxDepth   InitDepth  SurDepth   Aponded
;;-------------- ---------- ---------- ---------- ---------- ----------
SS33091          680.00     0          0          0          0
SS32079          665.00     0          0          0          0
SS310JC          660.00     0          0          0          0
SS31JC2          660.00     0          0          0          0
SS31073          665.00     0          0          0          0
SS3173E          670.00     0          0          0          0
SS30071          660.00     0          0          0          0
SS29069          650.00     0          0          0          0
SS2867W          650.00     0          0          0          0
SS27066          650.00     0          0          0          0
SS26064          640.00     0          0          0          0
SS25062          640.00     0          0          0          0
SS250JC          640.00     0          0          0          0
SS24059          640.00     0          0          0          0
SS23052          675.00     0          0          0          0
SS23050          670.50     0          0          0          0
SS22047          670.00     0          0          0          0
SS22042          670.00     0          0          0          0
SS2140E          670.00     0          0          0          0
OAK3207          660.00     0          0          0          0
SS2037A          670.00     0          0          0          0
SS19JCA          665.00     0          0          0          0
SS19JCB          665.00     0          0          0          0
SS18034          662.00     0          0          0          0
SS17033          662.00     0          0          0          0
SS17032          662.00     0          0          0          0
SS160JC          663.00     0          0          0          0
SS15031          662.00     0          0          0          0
SS1223A          646.00     0          0          0          0
SS100JC          638.00     0          0          0          0
SS2139E          670.00     0          0          0          0
SS11020          639.00     0          0          0          0
SS22041          667.00     0          0          0          0
SS37095          636.00     0          0          0          0
SS37092          636.00     0          0          0          0
SS37089          634.00     0          0          0          0
SS36JCA          635.00     0          0          0          0
SS36JCB          632.00     0          0          0          0
SS35086          633.00     0          0          0          0
SS34084          635.00     0          0          0          0
SS10JCB          636.00     0          0          0          0
SS09015          637.00     0          0          0          0
SS07012          638.00     0          0          0          0
SS08012AB        637.50     0          0          0          0
SS08012AA        639.00     0          0          0          0
SS050JC          638.00     0          0          0          0
SS03004          637.00     0          0          0          0
SS08012          640.00     0          0          0          0
FERN01124        651.00     0          0          0          0
FERN01172        650.00     0          0          0          0
SSF01159         650.00     0          0          0          0
FERN01163        650.00     0          0          0          0
FERN01336        650.00     0          0          0          0
FERN01222        650.00     0          0          0          0
FERN01100        640.00     0          0          0          0
FERN01202        640.00     0          0          0          0
SSF01118         640.00     0          0          0          0
SSF01192         640.00     0          0          0          0
FERN01298        640.00     0          0          0          0
FERN01186        640.00     0          0          0          0
FERN01158        648.00     0          0          0          0
SS13029          650.00     0          0          0          0
SS01154          650.00     0          0          0          0
PLRD13001S       650.00     0          0          0          0
SS13002          646.50     0          0          0          0
SS13004          670.00     0          0          0          0
SS13005          665.00     0          0          0          0
OAK3104          667.00     0          0          0          0
SS1310           665.00     0          0          0          0
SS13011          665.00     0          0          0          0
SS160JCA         662.00     0          0          0          0
SS13012          660.00     0          0          0          0
SS13014          663.00     0          0          0          0
SS13015          665.00     0          0          0          0
SSF13017         660.00     0          0          0          0
OAK3105          665.00     0          0          0          0
OAK3101          680.00     0          0          0          0
SS13030B         660.00     0          0          0          0
SS13032          655.00     0          0          0          0
SS13034          650.00     0          0          0          0
FERN01192S       640.00     0          0          0          0
FERN37089S       0          0          0          0          0
FERN01100S       0          0          0          0          0
FERN01163S       650.00     0          0          0          0
FERN27066S       650.00     0          0          0          0
FERN37095S       0          0          0          0          0
FERN01124S       651.00     0          0          0          0
FERN29069S       650.00     0          0          0          0
FERN36JCBS       635.00     0          0          0          0
FERN250JCS       645.00     0          0          0          0
FERN01158S       650.00     0          0          0          0
FERN01154S       650.00     0          0          0          0
FERN13029S       650.00     0          0          0          0
FERN1223AS       646.00     0          0          0          0
FERN01186S       640.00     0          0          0          0
FERN812AAS       645.00     0          0          0          0
FERN09015S       640.00     0          0          0          0
SS40             640.00     0          0          0          0
RYL40S           640.00     0          0          0          0
RYL13032S        655.00     0          0          0          0
SS41             640.00     0          0          0          0
RYL41S           640.00     0          0          0          0
PLRD13030S       660.00     0          0          0          0
RYL3004S         640.00     0          0          0          0
OAK3102S         675.00     0          0          0          0
OAK3101S         680.00     0          0          0          0
OAK3107S         675.00     0          0          0          0
SFD25SE1S        0          0          0          0          0
SFD25NE1S        0          0          0          0          0
OAK3008S         670.00     0          0          0          0
OAK3009S         670.00     0          0          0          0
OAK3110S         670.00     0          0          0          0
RYLT32SE1S       660.00     0          0          0          0
OAK3211S         668.00     0          0          0          0
OAK3212S         670.00     0          0          0          0
RYLT3213S        670.00     0          0          0          0
OAK2914S         665.00     0          0          0          0
OAK2915S         665.00     0          0          0          0
OAK2816S         665.00     0          0          0          0
OAK2817S         665.00     0          0          0          0
OAK2918S         665.00     0          0          0          0
MH2403S          635.00     0          0          0          0
MH2101S          638.00     0          0          0          0
S13030A          662.00     0          0          0          0
S13030B          660.00     0          0          0          0
S13030C          662.00     0          0          0          0
SSHW100          647.00     0          0          0          0
SSHW100S         645.00     0          0          0          0
HP02S            645.00     0          0          0          0
HP03S            640.00     0          0          0          0
FERN01S          672.00     0          0          0          0
OAK3107SA        670.00     0          0          0          0
OAK3101AS        670.00     0          0          0          0
MS14038          712.00     0          0          0          0
MS14034          712.00     0          0          0          0
MS13032          709.00     0          0          0          0
MS13028          705.00     0          0          0          0
MS11024          710.00     0          0          0          0
MS110JB          697.00     0          0          0          0
MS11020          695.00     0          0          0          0
MS11019          690.00     0          0          0          0
MS10018          685.00     0          0          0          0
MS14040          695.00     0          0          0          0
MS17056          685.00     0          0          0          0
MS16047          697.00     0          0          0          0
MS16045          695.00     0          0          0          0
MS16044          695.00     0          0          0          0
MS15043          690.00     0          0          0          0
MS15042          685.00     0          0          0          0
MS150JB          682.00     0          0          0          0
MS100JB          680.00     0          0          0          0
MS17051          675.00     0          0          0          0
MS09015          680.00     0          0          0          0
MS17054          675.00     0          0          0          0
MS09014          675.00     0          0          0          0
MS08JB1          665.00     0          0          0          0
MS08012          660.00     0          0          0          0
MS08JB2          660.00     0          0          0          0
MS2476A          685.00     0          0          0          0
MS24073          685.00     0          0          0          0
MS25080          670.00     0          0          0          0
MS230JB          670.00     0          0          0          0
MS23066          670.00     0          0          0          0
MS21063          660.00     0          0          0          0
MS210JB          660.00     0          0          0          0
MS20060          660.00     0          0          0          0
MS18057          660.00     0          0          0          0
MS05JB3          660.00     0          0          0          0
MS04JB4          655.00     0          0          0          0
MS03005          665.00     0          0          0          0
MS03004          650.00     0          0          0          0
MS02003          645.00     0          0          0          0
MS01JB5          640.00     0          0          0          0
MS01000          640.00     0          0          0          0
MSOP10           675.00     0          0          0          0
MSBK50           682.00     0          0          0          0
MSBK30           701.00     0          0          0          0
MSBK40           687.00     0          0          0          0
MSBK20           710.00     0          0          0          0
MSBK10           712.00     0          0          0          0
MSBK70           686.00     0          0          0          0
BK16047S         0          0          0          0          0
BK16045S         0          0          0          0          0
MSBK80           693.45     0          0          0          0
MSBK90           690.00     0          0          0          0
MSBK100          678.00     0          0          0          0
MSBK110          676.00     0          0          0          0
MSBK120          661.00     0          0          0          0
MSBK170          661.00     0          0          0          0
MSBK180          660.00     0          0          0          0
MSRO10           660.00     0          0          0          0
MSBK165          662.00     0          0          0          0
MSBK150          680.00     0          0          0          0
MSBK155          680.00     0          0          0          0
MSBK175          661.00     0          0          0          0
MSOP10S          0          0          0          0          0
BK15043S         690.00     0          0          0          0
BK15042S         685.00     0          0          0          0
BK80S            693.45     0          0          0          0
BK70S            686.00     0          0          0          0
BK40S            701.00     0          0          0          0
BKST30S          695.00     0          0          0          0
MSBK130S         692.40     0          0          0          0
BK17056S         685.00     0          0          0          0
MSBK155S         671.00     0          0          0          0
BK11019S         690.00     0          0          0          0
MSBK175S         671.00     0          0          0          0
BK08012S         660.00     0          0          0          0
MSBK120S         661.00     0          0          0          0
MSBK110S         676.00     0          0          0          0
MS12026          700.00     0          0          0          0
ST10S            0          0          0          0          0
MSST110S         0          0          0          0          0
MSST110          680.00     0          0          0          0
MSST120S         0          0          0          0          0
ST110JB          697.00     0          0          0          0
ST11024S         710.00     0          0          0          0
ST20S            712.00     0          0          0          0
ST14038S         712.00     0          0          0          0
ST14034S         712.00     0          0          0          0
MSST30           710.00     0          0          0          0
MSST30S          710.00     0          0          0          0
BKCEMTS          0          0          0          0          0
MSRO20           660.00     0          0          0          0
MSRO20S          660.00     0          0          0          0
CS02100          660.00     0          0          0          0
CS02110          659.00     0          0          0          0
MSRO30S          660.00     0          0          0          0
MSRO40           650.00     0          0          0          0
MSRO40S          650.00     0          0          0          0
MSRO55           650.00     0          0          0          0
MSRO55S          650.00     0          0          0          0
MSROCMTS         650.00     0          0          0          0
MH11JC           640.00     0          0          0          0
MSRO70           636.00     0          0          0          0
MSRO70S          0          0          0          0          0
SSF13037         637.50     0          0          0          0
MSRO75S          0          0          0          0          0
MSOP20           670.00     0          0          0          0
MSHW10           670.00     0          0          0          0
MSHW20           660.00     0          0          0          0
MSRT10S          0          0          0          0          0
OP24073S         685.00     0          0          0          0
MSOPHW40S        670.00     0          0          0          0
MSOPHW20         670.00     0          0          0          0
MSHRGCS          670.00     0          0          0          0
HW23066S         665.00     0          0          0          0
MSHW40S          670.00     0          0          0          0
MSHW50           655.00     0          0          0          0
MSHW50S          655.00     0          0          0          0
BK50S            686.00     0          0          0          0
BK11020S         690.00     0          0          0          0
OP230JB          670.00     0          0          0          0
NS42097          675.00     0          0          0          0
NS41086          670.00     0          0          0          0
NS46013          700.00     0          0          0          0
NS11016          650.00     0          0          0          0
NS10080          650.00     0          0          0          0
NS10000          645.00     0          0          0          0
NS09011          645.00     0          0          0          0
NS08000          645.00     0          0          0          0
NS06086          645.00     0          0          0          0
NS29218          720.00     0          0          0          0
NS29210          715.00     0          0          0          0
NS28200          710.00     0          0          0          0
NS28192          710.00     0          0          0          0
NS27177          705.00     0          0          0          0
NS25164          700.00     0          0          0          0
NS25152          685.00     0          0          0          0
NS24143          680.00     0          0          0          0
NS24135          680.00     0          0          0          0
NS23120          670.00     0          0          0          0
NS22102          665.00     0          0          0          0
NS30078          680.00     0          0          0          0
NS30072          705.00     0          0          0          0
NS55100          735.00     0          0          0          0
NS54090          735.00     0          0          0          0
NS53075          715.00     0          0          0          0
NS51060          704.00     0          0          0          0
NS50045          695.00     0          0          0          0
NS49030          685.00     0          0          0          0
NS48016          680.00     0          0          0          0
NS47000          670.00     0          0          0          0
NS39061          670.00     0          0          0          0
NS38043          670.00     0          0          0          0
NS37034          665.00     0          0          0          0
NS35000          665.00     0          0          0          0
NS20082          665.00     0          0          0          0
NS18052          665.00     0          0          0          0
NS17037          655.00     0          0          0          0
NS16017          645.00     0          0          0          0
NS04054          640.00     0          0          0          0
NS03031          640.00     0          0          0          0
CSO4050          720.00     0          0          0          0
CSO4060          715.00     0          0          0          0
CSO4005          750.00     0          0          0          0
CSO4010          745.00     0          0          0          0
CSO4020          732.00     0          0          0          0
CSO4030          725.00     0          0          0          0
CSO4090          685.00     0          0          0          0
CSO4100          680.00     0          0          0          0
CSO4140          662.00     0          0          0          0
CSO4110          680.00     0          0          0          0
CSO4120          670.00     0          0          0          0
CSO4130          665.00     0          0          0          0
CSO4150          660.00     0          0          0          0
CSO4510          660.00     0          0          0          0
CSO4520          660.00     0          0          0          0
CSO4530          660.00     0          0          0          0
CSO4540          660.00     0          0          0          0
CSO4410          660.00     0          0          0          0
CSO4170          650.00     0          0          0          0
CSO4420          660.00     0          0          0          0
CSO4160          650.00     0          0          0          0
CSO4115          675.00     0          0          0          0
CSO2130          640.00     0          0          0          0
CSO2505          710.00     0          0          0          0
CSO2510          710.00     0          0          0          0
CSO2520          700.00     0          0          0          0
CSO2530          690.00     0          0          0          0
CSO2540          680.00     0          0          0          0
CSO2080          670.00     0          0          0          0
CSO2170          670.00     0          0          0          0
CSO2090          660.00     0          0          0          0
CSO2030          710.00     0          0          0          0
CSO2054          690.00     0          0          0          0
CSO2052          700.00     0          0          0          0
CSO2410          720.00     0          0          0          0
CSO2420          720.00     0          0          0          0
CSO2430          720.00     0          0          0          0
CSO2440          720.00     0          0          0          0
CSO2450          720.00     0          0          0          0
CSO2005          730.00     0          0          0          0
CSO2010          720.00     0          0          0          0
CSO2020          720.00     0          0          0          0
CSO3220          645.00     0          0          0          0
CSO3210          650.00     0          0          0          0
CSO3230          645.00     0          0          0          0
CSO3240          645.00     0          0          0          0
CSO3250          645.00     0          0          0          0
CSO3020          645.00     0          0          0          0
CSO3310          650.00     0          0          0          0
CSO3010          650.00     0          0          0          0
CSO3040          645.00     0          0          0          0
CSO3050          645.00     0          0          0          0
CSO2140          640.00     0          0          0          0
CSO3005          660.00     0          0          0          0
CSO3007          660.00     0          0          0          0
CSO3009          660.00     0          0          0          0
CSO3305          670.00     0          0          0          0
M2001000         0          0          0          0          0
M2001005         0          0          0          0          0
M2010000         0          0          0          0          0
M2020000         0          0          0          0          0
M2030000         0          0          0          0          0
M2040000         0          0          0          0          0
M2042000         0          0          0          0          0
M2045000         0          0          0          0          0
M2041000         0          0          0          0          0
M2050000         0          0          0          0          0
M2004050         0          0          0          0          0
M2056000         0          0          0          0          0
M2001060         0          0          0          0          0
M2070000         0          0          0          0          0
M2005010         0          0          0          0          0
M2005000         0          0          0          0          0
M2058000         0          0          0          0          0
M2059000         0          0          0          0          0
M2005040         0          0          0          0          0
M2001080         0          0          0          0          0
M2001090         0          0          0          0          0
M2110000         0          0          0          0          0
M2120000         0          0          0          0          0
M3001005         0          0          0          0          0
M3010000         0          0          0          0          0
M3011000         0          0          0          0          0
M3020000         0          0          0          0          0
M3002005         0          0          0          0          0
M3022000         0          0          0          0          0
M3023000         0          0          0          0          0
M3002040         0          0          0          0          0
M3003005         0          0          0          0          0
M3001010         0          0          0          0          0
M3001050         0          0          0          0          0
M3001009         0          0          0          0          0
M3003010         0          0          0          0          0
M4001000         0          0          0          0          0
M4001005         0          0          0          0          0
M4002010         0          0          0          0          0
M4003000         0          0          0          0          0
M4050000         0          0          0          0          0
M4060000         0          0          0          0          0
M4070000         0          0          0          0          0
M4080000         0          0          0          0          0
M4090000         0          0          0          0          0
M4100000         0          0          0          0          0
M4110000         0          0          0          0          0
M4120000         0          0          0          0          0
M4130000         0          0          0          0          0
M4140000         0          0          0          0          0
M4150000         0          0          0          0          0
M4004010         0          0          0          0          0
M4005010         0          0          0          0          0
M4052000         0          0          0          0          0
M4053000         0          0          0          0          0
M4054000         0          0          0          0          0
M4042000         0          0          0          0          0
M4160000         0          0          0          0          0
12T-1            0          0          0          0          0
12T-10           0          0          0          0          0
12T-2            0          0          0          0          0
12T-3            0          0          0          0          0
12T-4            0          0          0          0          0
12T-4            0          0          0          0          0
12T-42           0          0          0          0          0
12T-4            0          0          0          0          0
12T-43           0          0          0          0          0
12T-44           0          0          0          0          0
12T-4            0          0          0          0          0
12T-46           0          0          0          0          0
12T-1            0          0          0          0          0
12T-5            0          0          0          0          0
12T-5            0          0          0          0          0
12T-51           0          0          0          0          0
12T-5            0          0          0          0          0
12T-1            0          0          0          0          0
12T180           645.00     0          0          0          0
CSO3000          670.00     0          0          0          0
M-0              0          0          0          0          0
Outlet           640.00     0          0          0          0
steph            640.00     0          0          0          0
M3001035         650.00     0          0          0          0
MH2475           637.00     0          0          0          0
MH12010S         630.00     0          0          0          0
MH12040S         630.00     0          0          0          0
MH12050S         630.00     0          0          0          0
MH12060S         630.00     0          0          0          0
MH15070S         630.00     0          0          0          0
MH14080S         630.00     0          0          0          0
MH04130S         630.00     0          0          0          0
DQ05             631.00     0          0          0          0
toy              630.00     0          0          0          0
DQ03             623.00     0          0          0          0
DQ11             630.00     0          0          0          0
troy             0          0          0          0          0
REDRUN           630.00     0          0          0          0
N27AB24S30       0          0          0          0          0
N16S18S24        0          0          0          0          0
N09S06ND7        0          0          0          0          0
N06S03           0          0          0          0          0
S14ABEFDC        0          0          0          0          0
S11AB            0          0          0          0          0
S10CDS10AB       0          0          0          0          0
SI01             634.00     0          0          0          0
SI20             634.00     0          0          0          0
MC01             631.20     0          0          0          0
METER            629.00     0          0          0          0
DETROIT          629.00     0          0          0          0
12MILB           640.00     0          0          0          0
12MIL            640.00     0          0          0          0
step             637.00     0          0          0          0

[STORAGE]
;;Name           Elev       MaxDepth   InitDepth  Shape      Curve/Params
;;-------------- ---------- ---------- ---------- ---------- ----------
CSO4070          710.00     -10.00     0          FUNCTIONAL 2000.00 0          0