;; SWMM5 .inp converted from XPSWMM .xp file
;; Generated by XPSWMM Card Reader
;; Source format: XP_CARD | Original title: East Bank

[TITLE]
;;Project Title/Notes
East Bank

[OPTIONS]
FLOW_UNITS           CFS
INFILTRATION         HORTON
FLOW_ROUTING         DYNWAVE
LINK_OFFSETS         DEPTH
MIN_SLOPE            0.0
ALLOW_PONDING        NO
SKIP_STEADY_STATE    NO
ROUTING_STEP         00:00:60
VARIABLE_STEP        0.75
INERTIAL_DAMPING     PARTIAL
NORMAL_FLOW_LIMITED  BOTH
MAX_TRIALS           50
HEAD_TOLERANCE       0.0033

[JUNCTIONS]
;;Name           Elev       MaxDepth   InitDepth  SurDepth   Aponded
;;-------------- ---------- ---------- ---------- ---------- ----------
55               5.40       0          0          0          0
56               4.80       0          0          0          0
61               7.00       0          0          0          0
62               7.00       0          0          0          0
64               5.90       0          0          0          0
67               4.00       0          0          0          0
68               4.10       0          0          0          0
70               3.40       0          0          0          0
72               2.70       0          0          0          0
76               3.20       0          0          0          0
79               7.20       0          0          0          0
81               7.10       0          0          0          0
83               4.60       0          0          0          0
85               4.60       0          0          0          0
89               9.20       0          0          0          0
92               9.60       0          0          0          0
93               9.60       0          0          0          0
97               9.60       0          0          0          0
98               9.60       0          0          0          0
100              9.20       0          0          0          0
104              5.24       0          0          0          0
106              5.24       0          0          0          0
109              23.00      0          0          0          0
111              12.00      0          0          0          0
113              8.90       0          0          0          0
115              14.72      0          0          0          0
117              12.57      0          0          0          0
118              11.37      0          0          0          0
120              11.37      0          0          0          0
125              12.57      0          0          0          0
127              11.65      0          0          0          0
129              11.65      0          0          0          0
132              15.00      0          0          0          0
134              17.00      0          0          0          0
135              23.00      0          0          0          0
138              16.10      0          0          0          0
140              17.70      0          0          0          0
142              14.19      0          0          0          0
143              20.00      0          0          0          0
145              20.00      0          0          0          0
149              16.10      0          0          0          0
151              11.65      0          0          0          0
153              11.65      0          0          0          0
155              10.80      0          0          0          0
158              10.54      0          0          0          0
163              11.24      0          0          0          0
164              14.10      0          0          0          0
167              14.10      0          0          0          0
168              14.10      0          0          0          0
173              5.00       0          0          0          0
174              5.00       0          0          0          0
178              7.10       0          0          0          0
180              16.00      0          0          0          0
181              15.00      0          0          0          0
185              15.00      0          0          0          0
187              9.60       0          0          0          0
189              9.60       0          0          0          0
191              12.00      0          0          0          0
192              12.00      0          0          0          0
194              9.56       0          0          0          0
196              9.56       0          0          0          0
199              8.50       0          0          0          0
201              11.24      0          0          0          0
203              11.24      0          0          0          0
205              7.33       0          0          0          0
207              8.50       0          0          0          0
209              10.30      0          0          0          0
210              10.30      0          0          0          0
212              10.30      0          0          0          0
213              11.70      0          0          0          0
217              6.65       0          0          0          0
218              6.65       0          0          0          0
220              4.70       0          0          0          0
222              7.33       0          0          0          0
225              6.10       0          0          0          0
227              7.84       0          0          0          0
228              14.84      0          0          0          0
230              14.84      0          0          0          0
232              13.30      0          0          0          0
234              13.30      0          0          0          0
236              5.53       0          0          0          0
238              7.50       0          0          0          0
240              6.13       0          0          0          0
241              7.50       0          0          0          0
245              3.50       0          0          0          0
247              9.20       0          0          0          0
249              11.20      0          0          0          0
250              11.20      0          0          0          0
252              9.96       0          0          0          0
254              9.00       0          0          0          0
256              13.70      0          0          0          0
257              13.70      0          0          0          0
259              8.00       0          0          0          0
261              13.30      0          0          0          0
262              13.30      0          0          0          0
265              13.20      0          0          0          0
267              9.10       0          0          0          0
269              6.46       0          0          0          0
271              6.08       0          0          0          0
274              3.98       0          0          0          0
275              4.90       0          0          0          0
278              14.10      0          0          0          0
284              5.70       0          0          0          0
285              5.70       0          0          0          0
288              6.98       0          0          0          0
289              7.68       0          0          0          0
291              6.32       0          0          0          0
293              6.32       0          0          0          0
295              4.10       0          0          0          0
297              3.00       0          0          0          0
1                4.55       0          0          0          0
3                6.00       0          0          0          0
5                4.70       0          0          0          0
7                4.00       0          0          0          0
11               7.50       0          0          0          0
15               8.00       0          0          0          0
19               8.23       0          0          0          0
29               10.50      0          0          0          0
31               9.50       0          0          0          0
23               10.10      0          0          0          0
25               9.95       0          0          0          0
27               10.50      0          0          0          0
21               9.00       0          0          0          0
9                5.00       0          0          0          0
13               3.81       0          0          0          0
17               6.00       0          0          0          0
37               6.18       0          0          0          0
38               3.00       0          0          0          0
40               3.00       0          0          0          0
42               3.00       0          0          0          0
44               6.50       0          0          0          0
45               6.79       0          0          0          0
48               8.50       0          0          0          0
300              6.50       0          0          0          0
301              6.40       0          0          0          0
303              4.50       0          0          0          0
305              4.32       0          0          0          0
307              5.12       0          0          0          0
310              5.12       0          0          0          0
312              5.25       0          0          0          0
314              4.10       0          0          0          0
316              8.20       0          0          0          0
318              11.36      0          0          0          0
319              8.08       0          0          0          0
322              7.76       0          0          0          0
323              7.54       0          0          0          0
325              6.75       0          0          0          0
327              6.40       0          0          0          0
329              4.97       0          0          0          0
332              8.21       0          0          0          0
334              11.50      0          0          0          0
335              7.81       0          0          0          0
337              8.93       0          0          0          0
339              8.25       0          0          0          0
342              10.85      0          0          0          0
343              12.09      0          0          0          0
345              11.71      0          0          0          0
349              11.43      0          0          0          0
350              10.88      0          0          0          0
352              11.43      0          0          0          0
354              12.09      0          0          0          0
356              11.34      0          0          0          0
358              10.11      0          0          0          0
360              8.20       0          0          0          0
362              8.00       0          0          0          0
365              7.90       0          0          0          0
366              8.55       0          0          0          0
368              8.25       0          0          0          0
370              8.21       0          0          0          0
373              8.35       0          0          0          0
375              6.82       0          0          0          0
376              6.82       0          0          0          0
378              5.43       0          0          0          0
381              11.81      0          0          0          0
382              11.12      0          0          0          0
384              12.13      0          0          0          0
387              12.03      0          0          0          0
388              11.65      0          0          0          0
391              11.20      0          0          0          0
392              10.25      0          0          0          0
394              10.25      0          0          0          0
396              10.41      0          0          0          0
400              10.71      0          0          0          0
401              10.05      0          0          0          0
403              10.50      0          0          0          0
406              11.53      0          0          0          0
408              10.69      0          0          0          0
410              10.55      0          0          0          0
412              10.35      0          0          0          0
414              10.05      0          0          0          0
416              10.20      0          0          0          0
418              10.20      0          0          0          0
420              10.72      0          0          0          0
422              10.22      0          0          0          0
424              10.51      0          0          0          0
426              9.87       0          0          0          0
428              9.87       0          0          0          0
430              9.63       0          0          0          0
432              9.97       0          0          0          0
434              10.20      0          0          0          0
436              8.92       0          0          0          0
438              7.71       0          0          0          0
440              6.50       0          0          0          0
443              5.47       0          0          0          0
445              6.00       0          0          0          0
447              6.25       0          0          0          0
449              12.10      0          0          0          0
450              13.50      0          0          0          0
452              13.00      0          0          0          0
454              10.49      0          0          0          0
456              10.00      0          0          0          0
459              11.75      0          0          0          0
460              11.85      0          0          0          0
462              7.40       0          0          0          0
464              7.20       0          0          0          0
467              8.75       0          0          0          0
468              8.60       0          0          0          0
471              7.36       0          0          0          0
472              4.23       0          0          0          0
474              4.23       0          0          0          0
476              5.00       0          0          0          0
478              4.50       0          0          0          0
479              3.99       0          0          0          0
482              5.00       0          0          0          0
484              3.07       0          0          0          0
486              4.00       0          0          0          0
488              4.00       0          0          0          0
502              6.00       0          0          0          0
503              10.18      0          0          0          0
505              10.36      0          0          0          0
507              5.33       0          0          0          0
509              5.65       0          0          0          0
510              5.48       0          0          0          0
512              5.18       0          0          0          0
515              8.07       0          0          0          0
517              9.49       0          0          0          0
519              5.25       0          0          0          0
533              7.40       0          0          0          0
535              7.40       0          0          0          0
537              4.60       0          0          0          0
539              6.00       0          0          0          0
540              7.00       0          0          0          0
541              7.00       0          0          0          0
544              6.75       0          0          0          0
547              6.75       0          0          0          0
549              8.10       0          0          0          0
551              8.22       0          0          0          0
553              7.40       0          0          0          0
555              8.50       0          0          0          0
557              8.85       0          0          0          0
559              9.63       0          0          0          0
561              9.25       0          0          0          0
563              9.50       0          0          0          0
565              9.50       0          0          0          0
567              11.17      0          0          0          0
569              13.13      0          0          0          0
571              14.30      0          0          0          0
573              11.23      0          0          0          0
575              13.20      0          0          0          0
577              13.15      0          0          0          0
579              15.80      0          0          0          0
581              11.52      0          0          0          0
583              11.61      0          0          0          0
585              11.83      0          0          0          0
587              11.50      0          0          0          0
589              15.90      0          0          0          0
591              16.40      0          0          0          0
593              3.09       0          0          0          0
594              4.09       0          0          0          0
596              7.46       0          0          0          0
598              14.51      0          0          0          0
599              15.23      0          0          0          0
601              15.33      0          0          0          0
603              13.80      0          0          0          0
605              13.79      0          0          0          0
607              12.70      0          0          0          0
609              12.77      0          0          0          0
611              12.58      0          0          0          0
613              13.50      0          0          0          0
615              12.84      0          0          0          0
617              12.26      0          0          0          0
619              10.65      0          0          0          0
621              10.23      0          0          0          0
623              9.30       0          0          0          0
625              9.40       0          0          0          0
627              6.89       0          0          0          0
629              6.05       0          0          0          0
631              7.00       0          0          0          0
633              7.28       0          0          0          0
635              4.95       0          0          0          0
637              5.95       0          0          0          0
645              3.17       0          0          0          0
647              5.95       0          0          0          0
649              3.21       0          0          0          0
651              5.95       0          0          0          0
653              5.95       0          0          0          0
655              4.75       0          0          0          0
657              4.22       0          0          0          0
659              5.61       0          0          0          0
661              5.47       0          0          0          0
663              5.22       0          0          0          0
665              5.47       0          0          0          0
667              5.52       0          0          0          0
669              5.43       0          0          0          0
670              5.58       0          0          0          0
672              5.44       0          0          0          0
674              5.18       0          0          0          0
677              4.84       0          0          0          0
680              5.95       0          0          0          0
682              5.95       0          0          0          0
685              7.45       0          0          0          0
687              7.45       0          0          0          0
689              6.47       0          0          0          0
691              5.03       0          0          0          0
694              7.86       0          0          0          0
696              6.94       0          0          0          0
698              7.22       0          0          0          0
700              8.00       0          0          0          0
702              10.07      0          0          0          0
704              8.44       0          0          0          0
706              8.20       0          0          0          0
707              8.76       0          0          0          0
709              9.75       0          0          0          0
711              8.79       0          0          0          0
712              9.62       0          0          0          0
714              9.14       0          0          0          0
716              8.43       0          0          0          0
718              9.68       0          0          0          0
722              9.71       0          0          0          0
723              9.74       0          0          0          0
725              8.95       0          0          0          0
727              8.45       0          0          0          0
737              8.31       0          0          0          0
739              10.00      0          0          0          0
741              8.18       0          0          0          0
749              7.23       0          0          0          0
750              7.13       0          0          0          0
752              7.14       0          0          0          0
755              7.00       0          0          0          0
966              5.95       0          0          0          0
967              3.38       0          0          0          0
760              5.50       0          0          0          0
970              13.60      0          0          0          0
972              33.12      0          0          0          0
978              6.21       0          0          0          0
980              6.40       0          0          0          0
950              6.00       0          0          0          0
952              4.19       0          0          0          0
730              6.00       0          0          0          0
732              4.64       0          0          0          0
734              4.26       0          0          0          0
953              4.42       0          0          0          0
954              4.04       0          0          0          0
956              4.54       0          0          0          0
743              4.13       0          0          0          0
748              6.00       0          0          0          0
959              6.00       0          0          0          0
961              4.47       0          0          0          0
964              6.00       0          0          0          0
757              13.34      0          0          0          0
758              14.23      0          0          0          0
764              16.01      0          0          0          0
766              11.53      0          0          0          0
771              4.50       0          0          0          0
772              4.50       0          0          0          0
774              2.50       0          0          0          0
776              2.00       0          0          0          0
778              13.67      0          0          0          0
779              14.68      0          0          0          0
781              14.02      0          0          0          0
783              14.47      0          0          0          0
785              11.92      0          0          0          0
787              11.00      0          0          0          0
789              9.60       0          0          0          0
791              8.78       0          0          0          0
793              6.20       0          0          0          0
795              5.00       0          0          0          0
797              5.38       0          0          0          0
799              5.34       0          0          0          0
801              8.65       0          0          0          0
804              2.00       0          0          0          0
807              16.59      0          0          0          0
808              14.63      0          0          0          0
810              12.10      0          0          0          0
813              12.00      0          0          0          0
815              11.00      0          0          0          0
817              7.75       0          0          0          0
819              7.55       0          0          0          0
821              8.17       0          0          0          0
822              9.43       0          0          0          0
824              9.10       0          0          0          0
826              8.80       0          0          0          0
828              8.70       0          0          0          0
831              6.50       0          0          0          0
833              4.30       0          0          0          0
835              11.45      0          0          0          0
836              11.43      0          0          0          0
838              11.13      0          0          0          0
840              9.95       0          0          0          0
842              9.93       0          0          0          0
844              11.36      0          0          0          0
847              11.02      0          0          0          0
849              9.73       0          0          0          0
852              9.59       0          0          0          0
853              10.13      0          0          0          0
856              8.47       0          0          0          0
858              9.22       0          0          0          0
860              4.33       0          0          0          0
862              8.57       0          0          0          0
863              5.50       0          0          0          0
865              6.00       0          0          0          0
867              6.00       0          0          0          0
869              5.90       0          0          0          0
872              4.05       0          0          0          0
874              7.02       0          0          0          0
876              4.90       0          0          0          0
878              4.45       0          0          0          0
882              12.25      0          0          0          0
883              12.21      0          0          0          0
885              12.65      0          0          0          0
887              11.50      0          0          0          0
889              11.75      0          0          0          0
892              12.00      0          0          0          0
893              11.00      0          0          0          0
895              8.60       0          0          0          0
897              8.60       0          0          0          0
899              4.58       0          0          0          0
901              4.01       0          0          0          0
903              11.00      0          0          0          0
904              10.78      0          0          0          0
908              8.50       0          0          0          0
909              8.50       0          0          0          0
912              4.11       0          0          0          0
913              4.01       0          0          0          0
916              10.85      0          0          0          0
917              12.40      0          0          0          0
919              8.74       0          0          0          0
921              8.50       0          0          0          0
923              11.26      0          0          0          0
924              11.32      0          0          0          0
926              7.45       0          0          0          0
927              7.52       0          0          0          0
930              11.37      0          0          0          0
931              11.00      0          0          0          0
933              8.50       0          0          0          0
935              8.50       0          0          0          0
937              3.44       0          0          0          0
939              2.00       0          0          0          0
984              5.00       0          0          0          0
943              5.90       0          2.00       0          0
987              5.00       0          0          0          0
1001             0          0          0          0          0
1000             0          0          0          0          0
1002             0          0          0          0          0
1022             0          0          0          0          0
1026             0          0          0          0          0
991              4.70       0          0          0          0
1050             2.50       0          0          0          0

[CONDUITS]
;;Name           From             To               Length     Roughness  InOffset   OutOffset  InitFlow   MaxFlow
;;-------------- ---------------- ---------------- ---------- ---------- ---------- ---------- ---------- ----------
57               55               56               2500.00    0          -8.00      -4.00      0          0
63               61               62               252.00     0          -3.40      -5.20      0          0