;; SWMM5 .inp converted from XPSWMM .xp file
;; Generated by XPSWMM Card Reader
;; Source format: XP_CARD | Original title: (none)

[TITLE]
;;Project Title/Notes
Converted from XPSWMM .xp file

[OPTIONS]
FLOW_UNITS           CFS
INFILTRATION         HORTON
FLOW_ROUTING         DYNWAVE
LINK_OFFSETS         DEPTH
MIN_SLOPE            0.0
ALLOW_PONDING        NO
SKIP_STEADY_STATE    NO
INERTIAL_DAMPING     PARTIAL
NORMAL_FLOW_LIMITED  BOTH

[JUNCTIONS]
;;Name           Elev       MaxDepth   InitDepth  SurDepth   Aponded
;;-------------- ---------- ---------- ---------- ---------- ----------
PL237+00         22.00      0          0          0          0
PL239+00         22.00      0          0          0          0
PL247+75         22.00      0          0          0          0
PL256+50         22.00      0          0          0          0
PL265+25         22.00      0          0          0          0
PL274+00         22.00      0          0          0          0
PL282+75         22.00      0          0          0          0
PL287+40         22.00      0          0          0          0
G329A            20.00      0          0          0          0
G329B            20.00      0          0          0          0
G329C            20.00      0          0          0          0
G329D            20.00      0          0          0          0
G329E            20.00      0          0          0          0
G329F            20.00      0          0          0          0
PL287+80         22.00      0          0          0          0
PL293+70         22.00      0          0          0          0
PL302+11         22.00      0          0          0          0
PL312+49         22.00      0          0          0          0
PL321+90         22.00      0          0          0          0
PL331+30         22.00      0          0          0          0
PL340+69         22.00      0          0          0          0
PL350+10         22.00      0          0          0          0
PL359+49         22.00      0          0          0          0
PL368+89         22.00      0          0          0          0
PL378+30         22.00      0          0          0          0
PL387+70         22.00      0          0          0          0
PL397+09         22.00      0          0          0          0
PL402+50         22.00      0          0          0          0
G331B            22.00      0          0          0          0
G331C            22.00      0          0          0          0
G331D            22.00      0          0          0          0
G331E            22.00      0          0          0          0
G331F            22.00      0          0          0          0
G331G            22.00      0          0          0          0
G331H            22.00      0          0          0          0
G331I            22.00      0          0          0          0
G331J            22.00      0          0          0          0
G331K            22.00      0          0          0          0
G331L            22.00      0          0          0          0
G331A            22.00      0          0          0          0
PL405+75         22.00      0          0          0          0
PL414+00         22.00      0          0          0          0
PL422+24         22.00      0          0          0          0
PL430+48         22.00      0          0          0          0
PL438+73         22.00      0          0          0          0
PL447+00         22.00      0          0          0          0
PL455+23         22.00      0          0          0          0
PL463+47         22.00      0          0          0          0
PL466+50         22.00      0          0          0          0
G333AW           22.00      0          0          0          0
G333A            22.00      0          0          0          0
G333BW           22.00      0          0          0          0
G333B            22.00      0          0          0          0
G333CW           22.00      0          0          0          0
G333C            22.00      0          0          0          0
G333DW           22.00      0          0          0          0
G333D            22.00      0          0          0          0
G333EW           22.00      0          0          0          0
G333E            22.00      0          0          0          0
G333FW           22.00      0          0          0          0
G333F            22.00      0          0          0          0
G333GW           22.00      0          0          0          0
G333G            22.00      0          0          0          0
G333HW           22.00      0          0          0          0
G333H            22.00      0          0          0          0

[CONDUITS]
;;Name           From             To               Length     Roughness  InOffset   OutOffset  InitFlow   MaxFlow
;;-------------- ---------------- ---------------- ---------- ---------- ---------- ---------- ---------- ----------
IC-10            PL237+00         PL239+00         200.00     0          -4.00      -4.00      0          0
IC-20            PL239+00         PL247+75         875.00     0          -4.00      -4.00      0          0
IC-30            PL247+75         PL256+50         875.00     0          -4.00      -4.00      0          0
IC-40            PL256+50         PL265+25         875.00     0          -4.00      -4.00      0          0
IC-50            PL265+25         PL274+00         875.00     0          -4.00      -4.00      0          0
IC-60            PL274+00         PL282+75         875.00     0          -4.00      -4.00      0          0
IC-70            PL282+75         PL287+40         465.00     0          -4.00      -4.00      0          0
IC-G329A         PL239+00         G329A            65.00      0.0240     6.00       6.00       0          0
IC-G329B         PL247+75         G329B            65.00      0.0240     6.00       6.00       0          0
IC-G329C         PL256+50         G329C            65.00      0.0240     6.00       6.00       0          0
IC-G329D         PL265+25         G329D            65.00      0.0240     6.00       6.00       0          0
IC-G329E         PL274+00         G329E            65.00      0.0240     6.00       6.00       0          0
IC-G329F         PL282+75         G329F            65.00      0.0240     6.00       6.00       0          0
IC-80            PL287+40         PL287+80         40.00      0          -4.00      -2.00      0          0
IC-85            PL287+80         PL293+70         590.00     0          -2.00      -2.00      0          0
IC-90            PL293+70         PL302+11         841.00     0          -2.00      -2.00      0          0
IC-100           PL302+11         PL312+49         1038.00    0          -2.00      -2.00      0          0
IC-110           PL312+49         PL321+90         941.00     0          -2.00      -2.00      0          0
IC-120           PL321+90         PL331+30         940.00     0          -2.00      -2.00      0          0
IC-130           PL331+30         PL340+69         939.00     0          -2.00      -2.00      0          0
IC-140           PL340+69         PL350+10         941.00     0          -2.00      -2.00      0          0
IC-150           PL350+10         PL359+49         939.00     0          -2.00      -2.00      0          0
IC-160           PL359+49         PL368+89         940.00     0          -2.00      -2.00      0          0
IC-170           PL368+89         PL378+30         941.00     0          -2.00      -2.00      0          0
IC-180           PL378+30         PL387+70         940.00     0          -2.00      -2.00      0          0
IC-190           PL387+70         PL397+09         939.00     0          -2.00      -2.00      0          0
IC-200           PL397+09         PL402+50         541.00     0          -2.00      -2.00      0          0
IC-G331B         PL302+11         G331B            65.00      0.0240     6.00       6.00       0          0
IC-G331C         ?                ?                65.00      0.0240     6.00       6.00       0          0
IC-G331D         PL321+90         G331D            65.00      0.0240     6.00       6.00       0          0
IC-G331E         PL331+30         G331E            65.00      0.0240     6.00       6.00       0          0
IC-G331F         PL340+69         G331F            65.00      0.0240     6.00       6.00       0          0
IC-G331G         PL350+10         G331G            75.00      0.0240     6.00       6.00       0          0
IC-G331H         PL359+49         G331H            75.00      0.0240     6.00       6.00       0          0
IC-G331I         PL368+89         G331I            75.00      0.0240     6.00       6.00       0          0
IC-G331J         PL378+30         G331J            75.00      0.0240     6.00       6.00       0          0

[XSECTIONS]
;;Link           Shape        Geom1      Geom2      Geom3      Geom4      Barrels
;;-------------- ------------ ---------- ---------- ---------- ---------- ----------
IC-10            IRREGULAR    0          0          0          0          1
IC-20            IRREGULAR    0          0          0          0          1
IC-30            IRREGULAR    0          0          0          0          1
IC-40            IRREGULAR    0          0          0          0          1
IC-50            IRREGULAR    0          0          0          0          1
IC-60            IRREGULAR    0          0          0          0          1
IC-70            IRREGULAR    0          0          0          0          1
IC-G329A         CIRCULAR     6.00       0          0          0          1
IC-G329B         CIRCULAR     6.00       0          0          0          1
IC-G329C         CIRCULAR     6.00       0          0          0          1
IC-G329D         CIRCULAR     6.00       0          0          0          1
IC-G329E         CIRCULAR     6.00       0          0          0          1
IC-G329F         CIRCULAR     6.00       0          0          0          1
IC-80            IRREGULAR    0          0          0          0          1
IC-85            IRREGULAR    0          0          0          0          1
IC-90            IRREGULAR    0          0          0          0          1
IC-100           IRREGULAR    0          0          0          0          1
IC-110           IRREGULAR    0          0          0          0          1
IC-120           IRREGULAR    0          0          0          0          1
IC-130           IRREGULAR    0          0          0          0          1
IC-140           IRREGULAR    0          0          0          0          1
IC-150           IRREGULAR    0          0          0          0          1
IC-160           IRREGULAR    0          0          0          0          1
IC-170           IRREGULAR    0          0          0          0          1
IC-180           IRREGULAR    0          0          0          0          1
IC-190           IRREGULAR    0          0          0          0          1
IC-200           IRREGULAR    0          0          0          0          1
IC-G331B         CIRCULAR     5.50       0          0          0          1
IC-G331C         CIRCULAR     5.50       0          0          0          1
IC-G331D         CIRCULAR     5.50       0          0          0          1
IC-G331E         CIRCULAR     5.50       0          0          0          1
IC-G331F         CIRCULAR     5.50       0          0          0          1
IC-G331G         CIRCULAR     6.00       0          0          0          1
IC-G331H         CIRCULAR     6.00       0          0          0          1
IC-G331I         CIRCULAR     6.00       0          0          0          1
IC-G331J         CIRCULAR     6.00       0          0          0          1

[LOSSES]
;;Link           Inlet      Outlet     Average    Flap Gate
;;-------------- ---------- ---------- ---------- ----------
IC-10            0          0          0          NO
IC-20            0          0          0          NO
IC-30            0          0          0          NO
IC-40            0          0          0          NO
IC-50            0          0          0          NO
IC-60            0          0          0          NO
IC-70            0          0          0          NO
IC-G329A         0          0          0          NO
IC-G329B         0          0          0          NO
IC-G329C         0          0          0          NO
IC-G329D         0          0          0          NO
IC-G329E         0          0          0          NO
IC-G329F         0          0          0          NO
IC-80            0          0          0          NO
IC-85            0          0          0          NO
IC-90            0          0          0          NO
IC-100           0          0          0          NO
IC-110           0          0          0          NO
IC-120           0          0          0          NO
IC-130           0          0          0          NO
IC-140           0          0          0          NO
IC-150           0          0          0          NO
IC-160           0          0          0          NO
IC-170           0          0          0          NO
IC-180           0          0          0          NO
IC-190           0          0          0          NO
IC-200           0          0          0          NO
IC-G331B         0          0          0          NO
IC-G331C         0          0          0          NO
IC-G331D         0          0          0          NO
IC-G331E         0          0          0          NO
IC-G331F         0          0          0          NO
IC-G331G         0          0          0          NO
IC-G331H         0          0          0          NO
IC-G331I         0          0          0          NO
IC-G331J         0          0          0          NO

[COORDINATES]
;;Node           X-Coord            Y-Coord
;;-------------- ------------------ ------------------
PL237+00         -23198.13          27442.56          
PL239+00         -23202.57          26979.46          
PL247+75         -23202.57          26088.43          
PL256+50         -23202.57          25196.81          
PL265+25         -23204.91          24283.20          
PL274+00         -23202.57          23362.94          
PL282+75         -23208.70          22488.44          
PL287+40         -23196.44          21975.67          
G329A            -22462.29          26979.46          
G329B            -22453.82          26083.05          
G329C            -22465.98          25193.75          
G329D            -22435.42          24283.20          
G329E            -22433.08          23378.55          
G329F            -22462.29          22491.16          
PL287+80         -23202.57          21834.04          
PL293+70         -23202.57          21257.65          
PL302+11         -23206.20          20231.58          
PL312+49         -23192.14          19179.93          
PL321+90         -23185.71          18159.03          
PL331+30         -23185.71          17122.76          
PL340+69         -23210.69          16097.15          
PL350+10         -23198.57          15082.20          
PL359+49         -23206.20          14040.90          
PL368+89         -23212.63          13004.32          
PL378+30         -23206.20          11994.09          
PL387+70         -23218.69          10963.45          
PL397+09         -23212.26          9932.82           
PL402+50         -23212.63          9430.36           
G331B            -22454.51          20236.61          
G331C            -22467.74          19179.93          
G331D            -22442.02          18164.67          
G331E            -22467.74          17128.40          
G331F            -22454.88          16102.79          
G331G            -22462.43          15087.53          
G331H            -22462.43          14046.23          
G331I            -22463.17          13020.31          
G331J            -22449.94          11994.09          
G331K            -22437.45          10974.11          
G331L            -22423.84          9927.79           
G331A            -22454.88          21267.86          
PL405+75         -23203.11          9022.13           
PL414+00         -23197.19          8139.62           
PL422+24         -23203.11          7229.22           
PL430+48         -23213.01          6356.57           
PL438+73         -23197.19          5446.17           
PL447+00         -23213.01          4568.57           
PL455+23         -23213.01          3661.47           
PL463+47         -23220.92          2774.05           
PL466+50         -23213.01          2444.33           
G333AW           -22451.30          9033.60           
G333A            -21762.77          9040.16           
G333BW           -22461.20          8129.80           
G333B            -21760.78          8142.92           
G333CW           -22492.84          7260.41           
G333C            -21782.52          7260.41           
G333DW           -22480.95          6350.01           
G333D            -21766.70          6358.22           
G333EW           -22478.96          5447.82           
G333E            -21756.80          5449.47           
G333FW           -22486.87          4581.69           
G333F            -21760.78          4575.13           
G333GW           -22516.52          3659.82           
G333G            -21774.61          3669.68           
G333HW           -22488.81          2783.91           
G333H            -21764.71          2777.35           

[MAP]
DIMENSIONS -23220.92 2444.33 -21756.80 27442.56
Units      None

[REPORT]
INPUT            YES
SUBCATCHMENTS    ALL
NODES            ALL
LINKS            ALL



