;; SWMM5 .inp converted from XPSWMM .xp file
;; Generated by XPSWMM Card Reader
;; Source format: XP_CARD | Original title: (none)

[TITLE]
;;Project Title/Notes
Converted from XPSWMM .xp file

[OPTIONS]
FLOW_UNITS           CMS
INFILTRATION         HORTON
FLOW_ROUTING         DYNWAVE
LINK_OFFSETS         DEPTH
MIN_SLOPE            0.0
ALLOW_PONDING        NO
SKIP_STEADY_STATE    NO
INERTIAL_DAMPING     PARTIAL
NORMAL_FLOW_LIMITED  BOTH

[JUNCTIONS]
;;Name           Elev       MaxDepth   InitDepth  SurDepth   Aponded
;;-------------- ---------- ---------- ---------- ---------- ----------
0                7.18       0          0          0          0
0                80.14      0          0          0          0
0                80.36      0          0          0          0
0                80.11      0          0          0          0
0                81.61      0          0          0          0
0                81.00      0          0          0          0
0                80.68      0          0          0          0
0                80.31      0          0          0          0
0                80.24      0          0          0          0
0                80.62      0          0          0          0
0                80.02      0          0          0          0
0                80.22      0          0          0          0
0                81.71      0          0          0          0
0                82.48      0          0          0          0
0                79.74      0          0          0          0
0                81.76      0          0          0          0
0                81.76      0          0          0          0
0                81.37      0          0          0          0
0                80.52      0          0          0          0
0                76.62      0          0          0          0
0                72.73      0          0          0          0
0                73.37      0          0          0          0
0                72.81      0          0          0          0
0                69.97      0          0          0          0
0                66.64      0          0          0          0
0                66.98      0          0          0          0
0                66.85      0          0          0          0
0                66.45      0          0          0          0
0                65.00      0          0          0          0
0                64.41      0          0          0          0
0                65.65      0          0          0          0
0                20.46      0          0          0          0

[CONDUITS]
;;Name           From             To               Length     Roughness  InOffset   OutOffset  InitFlow   MaxFlow
;;-------------- ---------------- ---------------- ---------- ---------- ---------- ---------- ---------- ----------
201              0                0                20.67      0          79.23      79.24      0          0
202              0                0                371.00     0          72.96      71.47      0          0
203              0                0                95.00      0          71.47      71.09      0          0
204              0                0                234.00     0          71.09      72.59      0          0
205              0                0                175.00     0          72.59      72.17      0          0
206              0                0                875.00     0          72.17      70.08      0          0
207              0                0                871.00     0          70.08      69.47      0          0
208              0                0                105.00     0          69.47      69.40      0          0
209              0                0                24.00      0          69.40      70.31      0          0
210              0                0                105.00     0          70.31      70.03      0          0
211              0                0                494.00     0          70.03      68.74      0          0
212              0                0                1230.00    0          68.74      68.64      0          0
213              0                0                617.00     0          68.64      65.81      0          0
214              0                0                919.00     0          65.81      61.02      0          0
215              0                0                100.00     0          61.02      60.50      0          0
216              0                0                61.00      0          60.50      60.50      0          0
217              0                0                102.00     0          60.50      60.11      0          0
218              0                0                465.00     0          60.11      58.32      0          0
219              0                0                862.00     0          58.32      54.42      0          0
220              0                0                108.00     0          54.42      53.93      0          0
221              0                0                61.00      0          53.93      53.77      0          0
222              0                0                102.00     0          53.77      53.21      0          0
223              0                0                124.00     0          53.21      52.54      0          0
224              0                0                133.00     0          52.54      51.09      0          0
225              0                0                133.00     0          51.09      49.64      0          0
226              0                0                133.00     0          49.64      48.20      0          0
227              0                0                133.00     0          48.20      46.75      0          0
228              0                0                133.00     0          46.75      45.30      0          0
229              0                0                126.00     0          45.30      44.96      0          0
230              0                0                33.00      0          44.96      45.19      0          0
231              0                0                130.37     0          50.54      40.34      0          0

[XSECTIONS]
;;Link           Shape        Geom1      Geom2      Geom3      Geom4      Barrels
;;-------------- ------------ ---------- ---------- ---------- ---------- ----------
201              IRREGULAR    0          0          0          0          1
202              IRREGULAR    0          0          0          0          1
203              IRREGULAR    0          0          0          0          1
204              IRREGULAR    0          0          0          0          1
205              IRREGULAR    0          0          0          0          1
206              IRREGULAR    0          0          0          0          1
207              IRREGULAR    0          0          0          0          1
208              IRREGULAR    0          0          0          0          1
209              IRREGULAR    0          0          0          0          1
210              IRREGULAR    0          0          0          0          1
211              IRREGULAR    0          0          0          0          1
212              IRREGULAR    0          0          0          0          1
213              IRREGULAR    0          0          0          0          1
214              IRREGULAR    0          0          0          0          1
215              IRREGULAR    0          0          0          0          1
216              IRREGULAR    0          0          0          0          1
217              IRREGULAR    0          0          0          0          1
218              IRREGULAR    0          0          0          0          1
219              IRREGULAR    0          0          0          0          1
220              IRREGULAR    0          0          0          0          1
221              IRREGULAR    0          0          0          0          1
222              IRREGULAR    0          0          0          0          1
223              IRREGULAR    0          0          0          0          1
224              IRREGULAR    0          0          0          0          1
225              IRREGULAR    0          0          0          0          1
226              IRREGULAR    0          0          0          0          1
227              IRREGULAR    0          0          0          0          1
228              IRREGULAR    0          0          0          0          1
229              IRREGULAR    0          0          0          0          1
230              IRREGULAR    0          0          0          0          1
231              IRREGULAR    0          0          0          0          1

[LOSSES]
;;Link           Inlet      Outlet     Average    Flap Gate
;;-------------- ---------- ---------- ---------- ----------
201              0          0          0          NO
202              0          0          0          NO
203              0          0          0          NO
204              0          0          0          NO
205              0          0          0          NO
206              0          0          0          NO
207              0          0          0          NO
208              0          0          0          NO
209              0          0          0          NO
210              0          0          0          NO
211              0          0          0          NO
212              0          0          0          NO
213              0          0          0          NO
214              0          0          0          NO
215              0          0          0          NO
216              0          0          0          NO
217              0          0          0          NO
218              0          0          0          NO
219              0          0          0          NO
220              0          0          0          NO
221              0          0          0          NO
222              0          0          0          NO
223              0          0          0          NO
224              0          0          0          NO
225              0          0          0          NO
226              0          0          0          NO
227              0          0          0          NO
228              0          0          0          NO
229              0          0          0          NO
230              0          0          0          NO
231              0          0          0          NO

[COORDINATES]
;;Node           X-Coord            Y-Coord
;;-------------- ------------------ ------------------
0                -13869835.10       3100418.73        
0                -13869814.43       3100418.79        
0                -13869447.19       3100401.01        
0                -13869357.23       3100371.43        
0                -13869164.33       3100258.41        
0                -13869156.24       3100082.67        
0                -13869132.06       3099207.78        
0                -13869102.53       3098338.38        
0                -13869097.32       3098233.09        
0                -13869095.44       3098209.08        
0                -13869094.44       3098104.33        
0                -13869082.91       3097611.87        
0                -13869040.38       3096383.53        
0                -13869016.29       3095767.38        
0                -13868991.69       3094847.84        
0                -13868989.01       3094749.02        
0                -13868986.03       3094687.45        
0                -13868977.96       3094586.31        
0                -13868963.60       3094122.13        
0                -13868933.85       3093262.75        
0                -13868926.62       3093161.52        
0                -13868923.96       3093087.64        
0                -13868920.41       3092992.27        
0                -13868921.48       3092869.19        
0                -13868921.64       3092744.51        
0                -13868913.96       3092617.82        
0                -13868907.32       3092487.24        
0                -13868878.98       3092352.20        
0                -13868765.20       3092290.67        
0                -13868673.57       3092207.29        
0                -13868651.17       3092183.29        
0                -13868575.00       3092077.50        

[MAP]
DIMENSIONS -13869835.10 3092077.50 -13868575.00 3100418.79
Units      None

[REPORT]
INPUT            YES
SUBCATCHMENTS    ALL
NODES            ALL
LINKS            ALL



