;; SWMM5 .inp converted from XPSWMM .xp file
;; Generated by XPSWMM Card Reader
;; Source format: XP_CARD | Original title: (none)

[TITLE]
;;Project Title/Notes
Converted from XPSWMM .xp file

[OPTIONS]
FLOW_UNITS           CMS
INFILTRATION         HORTON
FLOW_ROUTING         DYNWAVE
LINK_OFFSETS         DEPTH
MIN_SLOPE            0.0
ALLOW_PONDING        NO
SKIP_STEADY_STATE    NO
ROUTING_STEP         00:00:06
VARIABLE_STEP        0.75
INERTIAL_DAMPING     PARTIAL
NORMAL_FLOW_LIMITED  BOTH
MAX_TRIALS           50
HEAD_TOLERANCE       .15

[JUNCTIONS]
;;Name           Elev       MaxDepth   InitDepth  SurDepth   Aponded
;;-------------- ---------- ---------- ---------- ---------- ----------
2                2.49       0          0          0          0
3                2.33       0          0          0          0
5                1.86       0          0          0          0
7                1.80       0          0          0          0
9                1.38       0          0          0          0
11               1.10       0          0          0          0
13               1.10       0          0          0          0
16               3.00       0          0          0          0
18               2.02       0          0          0          0
22               2.50       0          0          0          0
24               2.00       0          0          0          0
26               2.00       0          0          0          0
28               1.50       0          0          0          0
30               1.50       0          0          0          0
32               0.60       0          0          0          0
36               2.00       0          0          0          0
38               2.00       0          0          0          0
40               2.00       0          0          0          0
55               0.60       0          0          0          0
62               2.50       0          0          0          0
64               3.00       0          0          0          0
70               1.10       0          0          0          0

[CONDUITS]
;;Name           From             To               Length     Roughness  InOffset   OutOffset  InitFlow   MaxFlow
;;-------------- ---------------- ---------------- ---------- ---------- ---------- ---------- ---------- ----------
4                2                3                115.00     0.0130     -42.60     -42.67     0          0
8                5                7                158.00     0.0130     -43.09     -43.18     0          0
10               7                9                646.00     0.0130     -43.18     -43.54     0          0
12               9                11               432.00     0.0130     -43.43     -43.67     0          0
1-1              22               3                280.00     0.0130     -8.50      -8.89      0          0
2-1              24               5                1050.00    0.0130     -7.92      -9.39      0          0
2-2              26               7                370.00     0.0130     -8.32      -8.84      0          0
2-3              28               9                1520.00    0.0130     -7.26      -9.39      0          0
2-4              30               9                280.00     0.0130     -9.00      -9.39      0          0
33               13               32               270.00     0.0130     -43.88     -44.02     0          0
4-1              36               11               1290.00    0.0130     -7.21      -9.01      0          0
4-3              38               18               590.00     0.0130     -8.19      -9.01      0          0
41               3                40               415.00     0.0130     -42.67     -42.89     0          0
56               32               55               100.00     0.0130     -21.00     -21.02     0          0
60               16               18               531.00     0.0130     -44.42     -44.13     0          0
63               62               2                280.00     0.0130     -8.50      -8.89      0          0
65               64               16               590.00     0.0130     -8.19      -9.01      0          0
69               11               13               143.00     0.0140     -43.67     -43.74     0          0
71               18               70               356.00     0.0130     -43.94     -43.74     0          0

[WEIRS]
;;Name           From             To               Type       CrestHt    Qcoeff     Gated    EndCon   EndCoeff   Surcharge
;;-------------- ---------------- ---------------- ---------- ---------- ---------- -------- -------- ---------- ----------
242.1            40               5                TRANSVERSE -41.26     1.840      NO       0        0          YES
272.1            70               13               TRANSVERSE -40.00     1.840      NO       0        0          YES

[XSECTIONS]
;;Link           Shape        Geom1      Geom2      Geom3      Geom4      Barrels
;;-------------- ------------ ---------- ---------- ---------- ---------- ----------
4                CIRCULAR     7.00       0          0          0          1
8                CIRCULAR     7.00       0          0          0          1
10               CIRCULAR     7.00       0          0          0          1
12               CIRCULAR     7.00       0          0          0          1
1-1              CIRCULAR     7.00       0          0          0          1
2-1              CIRCULAR     3.00       0          0          0          1
2-2              CIRCULAR     2.60       0          0          0          1
2-3              CIRCULAR     3.25       0          0          0          1
2-4              CIRCULAR     2.40       0          0          0          1
33               CIRCULAR     7.00       0          0          0          1
4-1              CIRCULAR     2.60       0          0          0          1
4-3              CIRCULAR     2.80       0          0          0          1
41               CIRCULAR     7.00       0          0          0          1
56               CIRCULAR     10.00      0          0          0          1
60               CIRCULAR     7.00       0          0          0          1
63               CIRCULAR     2.00       0          0          0          1
65               CIRCULAR     2.80       0          0          0          1
69               CIRCULAR     7.00       0          0          0          1
71               CIRCULAR     7.00       0          0          0          1
242.1            RECT_OPEN    0          10.00      0          0          
272.1            RECT_OPEN    0          10.00      0          0          

[LOSSES]
;;Link           Inlet      Outlet     Average    Flap Gate
;;-------------- ---------- ---------- ---------- ----------
4                0          0          0          NO
8                0          0          0          NO
10               0          0          0          NO
12               0          0          0          NO
1-1              0          0          0          NO
2-1              0          0          0          NO
2-2              0          0          0          NO
2-3              0          0          0          NO
2-4              0          0          0          NO
33               0          0          0          NO
4-1              0          0          0          NO
4-3              0          0          0          NO
41               0          0          0          NO
56               0          0          0          NO
60               0          0          0          NO
63               0          0          0          NO
65               0          0          0          NO
69               0          0          0          NO
71               0          0          0          NO

[COORDINATES]
;;Node           X-Coord            Y-Coord
;;-------------- ------------------ ------------------
2                25.61              33.80             
3                39.13              44.25             
5                54.47              64.28             
7                65.28              66.70             
9                81.98              108.33            
11               125.77             184.81            
13               128.13             202.79            
16               90.89              202.17            
18               125.73             231.55            
22               19.90              67.83             
24               22.25              88.30             
26               67.54              36.50             
28               24.61              107.85            
30               111.47             105.32            
32               146.61             199.28            
36               66.80              185.19            
38               84.32              236.46            
40               48.07              55.04             
55               171.44             198.99            
62               15.98              48.19             
64               51.70              202.67            
70               128.61             222.13            

[MAP]
DIMENSIONS 15.98 33.80 171.44 236.46
Units      None

[REPORT]
INPUT            YES
SUBCATCHMENTS    ALL
NODES            ALL
LINKS            ALL



