;; SWMM5 .inp converted from XPSWMM .xp file
;; Generated by XPSWMM Card Reader
;; Source format: XP_CARD | Original title: American Airlines North Terminal Development Stormwater System No. 2430

[TITLE]
;;Project Title/Notes
American Airlines North Terminal Development Stormwater System No. 2430

[OPTIONS]
FLOW_UNITS           CFS
INFILTRATION         HORTON
FLOW_ROUTING         DYNWAVE
LINK_OFFSETS         DEPTH
MIN_SLOPE            0.0
ALLOW_PONDING        NO
SKIP_STEADY_STATE    NO
ROUTING_STEP         00:00:05
VARIABLE_STEP        0.75
INERTIAL_DAMPING     PARTIAL
NORMAL_FLOW_LIMITED  BOTH
MAX_TRIALS           50
HEAD_TOLERANCE       0.0033

[JUNCTIONS]
;;Name           Elev       MaxDepth   InitDepth  SurDepth   Aponded
;;-------------- ---------- ---------- ---------- ---------- ----------
52               8.50       0          0          0          0
54               8.50       0          0          0          0
55               8.50       0          0          0          0
57               8.50       0          0          0          0
59               8.50       0          0          0          0
62               7.60       0          0          0          0
64               9.20       0          5.25       0          0
66               8.40       0          0          0          0
67               8.40       0          0          0          0
69               8.40       0          0          0          0
71               8.50       0          0          0          0
74               7.30       0          0          0          0
75               7.30       0          0          0          0
77               7.30       0          0          0          0
79               7.30       0          0          0          0
92               7.30       0          0          0          0
99               7.30       0          0          0          0
101              6.30       0          0          0          0
107              7.30       0          0          0          0
109              7.30       0          0          0          0
111              8.00       0          0          0          0

[STORAGE]
;;Name           Elev       MaxDepth   InitDepth  Shape      Curve/Params
;;-------------- ---------- ---------- ---------- ---------- ----------
49               10.00      -1.60      0          FUNCTIONAL 0 0          0
50               10.00      -1.60      0          FUNCTIONAL 0 0          0
81               7.30       0.01       0          FUNCTIONAL 0 0          0
82               7.30       0.01       0          FUNCTIONAL 0 0          0
85               7.31       0          0          FUNCTIONAL 0 0          0
88               7.31       0          0          FUNCTIONAL 0 0          0

[CONDUITS]
;;Name           From             To               Length     Roughness  InOffset   OutOffset  InitFlow   MaxFlow
;;-------------- ---------------- ---------------- ---------- ---------- ---------- ---------- ---------- ----------
51               49               50               260.00     0.0140     -4.00      -4.00      0          0
53               50               52               500.00     0.0200     -4.00      -4.00      0          0
56               54               55               30.00      0.0140     -2.00      -2.00      0          0
58               55               57               95.00      0.0140     -2.00      -2.00      0          0
60               57               59               70.00      0.0140     -2.00      -2.00      0          0
61               59               52               135.00     0.0140     -2.00      -2.00      0          0
63               52               62               335.00     0.0140     -4.00      -4.00      0          0
65               62               64               720.00     0.0140     -4.00      -4.00      0          0
68               66               67               20.00      0.0140     -2.00      -2.00      0          0
70               67               69               125.00     0.0140     -2.00      -2.00      0          0
72               69               71               235.00     0.0140     -2.00      -2.00      0          0
73               71               52               30.00      0.0140     -2.00      -2.00      0          0
76               74               75               125.00     0.0140     6.15       6.05       0          0
78               75               77               125.00     0.0140     6.05       5.95       0          0
83               81               82               125.00     0.0140     6.30       6.20       0          0
86               82               85               125.00     0.0140     6.21       6.11       0          0
90               79               77               50.00      0.0140     6.05       5.95       0          0
91               88               85               50.00      0.0140     6.21       6.11       0          0
93               85               92               20.00      0.0140     -2.00      -2.00      0          0
94               92               62               120.00     0.0140     -2.00      -2.00      0          0
100              77               99               30.00      0.0140     5.95       5.50       0          0
108              101              107              60.00      0.0140     2.00       2.00       0          0
110              107              109              180.00     0.0140     2.00       2.00       0          0
112              109              111              100.00     0.0140     0          0          0          0
113              111              71               25.00      0.0140     2.00       1.00       0          0

[WEIRS]
;;Name           From             To               Type       CrestHt    Qcoeff     Gated    EndCon   EndCoeff   Surcharge
;;-------------- ---------------- ---------------- ---------- ---------- ---------- -------- -------- ---------- ----------
295.1            74               81               TRANSVERSE 7.30       1.840      NO       0        0          YES
295.1            75               82               TRANSVERSE 7.30       1.840      NO       0        0          YES
295.1            77               85               TRANSVERSE 7.30       1.840      NO       0        0          YES
295.1            79               88               TRANSVERSE 7.30       1.840      NO       0        0          YES
302.1            99               101              TRANSVERSE 3.00       1.840      NO       0        0          YES

[XSECTIONS]
;;Link           Shape        Geom1      Geom2      Geom3      Geom4      Barrels
;;-------------- ------------ ---------- ---------- ---------- ---------- ----------
51               CIRCULAR     4.00       0          0          0          1
53               CIRCULAR     4.00       0          0          0          2
56               CIRCULAR     2.00       0          0          0          1
58               CIRCULAR     2.00       0          0          0          1
60               CIRCULAR     2.00       0          0          0          1
61               CIRCULAR     2.00       0          0          0          1
63               RECT_CLOSED  8.00       4.00       0          0          1
65               RECT_CLOSED  8.00       4.00       0          0          1
68               CIRCULAR     2.00       0          0          0          1
70               CIRCULAR     2.00       0          0          0          1
72               CIRCULAR     2.00       0          0          0          1
73               CIRCULAR     2.00       0          0          0          1
76               TRAPEZOIDAL  1.00       0.80       0          0          2
78               TRAPEZOIDAL  1.20       0.70       0          0          2
83               TRAPEZOIDAL  1.00       1.80       0          0          1
86               TRAPEZOIDAL  1.00       1.80       0          0          1
90               TRAPEZOIDAL  1.00       0.80       0          0          2
91               TRAPEZOIDAL  1.00       1.80       0          0          1
93               CIRCULAR     2.00       0          0          0          1
94               CIRCULAR     2.00       0          0          0          1
100              CIRCULAR     1.00       0          0          0          1
108              CIRCULAR     1.00       0          0          0          1
110              CIRCULAR     1.00       0          0          0          1
112              CIRCULAR     0.17       0          0          0          50
113              CIRCULAR     1.00       0          0          0          1
295.1            RECT_OPEN    0          125.00     0          0          
295.1            RECT_OPEN    0          125.00     0          0          
295.1            RECT_OPEN    0          125.00     0          0          
295.1            RECT_OPEN    0          125.00     0          0          
302.1            RECT_OPEN    0          5.00       0          0          

[LOSSES]
;;Link           Inlet      Outlet     Average    Flap Gate
;;-------------- ---------- ---------- ---------- ----------
51               0          0          0          NO
53               0          0          0          NO
56               0          0          0          NO
58               0          0          0          NO
60               0          0          0          NO
61               0          0          0          NO
63               0          0          0          NO
65               0          0          0          NO
68               0          0          0          NO
70               0          0          0          NO
72               0          0          0          NO
73               0          0          0          NO
76               0          0          0          NO
78               0          0          0          NO
83               0          0          0          NO
86               0          0          0          NO
90               0          0          0          NO
91               0          0          0          NO
93               0          0          0          NO
94               0          0          0          NO
100              0          0          0          NO
108              0          0          0          NO
110              0          0          0          NO
112              0          0          0          NO
113              0          0          0          NO

[COORDINATES]
;;Node           X-Coord            Y-Coord
;;-------------- ------------------ ------------------
49               -9968.62           10754.34          
50               -10298.62          10759.34          
52               -10568.62          10934.34          
54               -11168.62          9739.34           
55               -11058.62          9869.34           
57               -10828.62          10129.34          
59               -10563.62          10419.34          
62               -12098.62          10254.34          
64               -13803.62          10254.34          
66               -10563.62          12849.34          
67               -10568.62          12489.34          
69               -10568.62          12004.34          
71               -10573.62          11264.34          
74               -12383.62          9749.34           
75               -11828.62          10504.34          
77               -11408.62          11124.34          
79               -11403.62          11664.34          
81               -12743.62          9779.34           
82               -12178.62          10544.34          
85               -11788.62          11119.34          
88               -11783.62          11644.34          
92               -12098.62          11114.34          
99               -11173.62          11314.34          
101              -11168.62          11579.34          
107              -11173.62          11829.34          
109              -10963.62          11829.34          
111              -10963.62          11484.34          

[MAP]
DIMENSIONS -13803.62 9739.34 -9968.62 12849.34
Units      None

[REPORT]
INPUT            YES
SUBCATCHMENTS    ALL
NODES            ALL
LINKS            ALL



