;; SWMM5 .inp converted from XPSWMM .xp file
;; Generated by XPSWMM Card Reader
;; Source format: XP_CARD | Original title: Cole Street Area 5 Year Storm

[TITLE]
;;Project Title/Notes
Cole Street Area 5 Year Storm

[OPTIONS]
FLOW_UNITS           CFS
INFILTRATION         HORTON
FLOW_ROUTING         DYNWAVE
LINK_OFFSETS         DEPTH
MIN_SLOPE            0.0
ALLOW_PONDING        NO
SKIP_STEADY_STATE    NO
ROUTING_STEP         00:00:60
VARIABLE_STEP        0.75
INERTIAL_DAMPING     PARTIAL
NORMAL_FLOW_LIMITED  BOTH
HEAD_TOLERANCE       0.0033

[JUNCTIONS]
;;Name           Elev       MaxDepth   InitDepth  SurDepth   Aponded
;;-------------- ---------- ---------- ---------- ---------- ----------
CS002            104.00     0          0          0          0
CS003            104.24     0          0          0          0
CS004            105.80     0          0          0          0
CS005            106.82     0          0          0          0
CS006            108.23     0          0          0          0
CS007            104.00     0          0          0          0
CS008            104.00     0          0          0          0
CS020            108.00     0          0          0          0
CS021            110.00     0          0          0          0
CS022            113.00     0          0          0          0
CS050            110.00     0          0          0          0
CS051            108.49     0          0          0          0
CS052            109.77     0          0          0          0
CS053            111.07     0          0          0          0
CS054            112.28     0          0          0          0
CS055            112.59     0          0          0          0
CS056            113.14     0          0          0          0
CS070            114.00     0          0          0          0
CS071            114.00     0          0          0          0
CS072            114.00     0          0          0          0
CS073            114.00     0          0          0          0
CS074            114.00     0          0          0          0
CS080            113.00     0          0          0          0
CS081            112.00     0          0          0          0
CS082            116.00     0          0          0          0
CS083            119.00     0          0          0          0
CS084            122.00     0          0          0          0
CS085            119.00     0          0          0          0
CS086            122.00     0          0          0          0
CS087            125.00     0          0          0          0
CS088            122.50     0          0          0          0
CS089            122.50     0          0          0          0
CS090            131.00     0          0          0          0
CS091            135.00     0          0          0          0
CS092            137.00     0          0          0          0
CS093            137.00     0          0          0          0
CS094            137.00     0          0          0          0
CS100            125.00     0          0          0          0
CS101            125.00     0          0          0          0
CS102            125.00     0          0          0          0
CS110            129.00     0          0          0          0
CS111            129.00     0          0          0          0
CS112            129.00     0          0          0          0
CS120            129.00     0          0          0          0
CS121            133.00     0          0          0          0
CS130            124.06     0          0          0          0
CS131            125.26     0          0          0          0
CS132            128.83     0          0          0          0
CS133            129.00     0          0          0          0
CS134            129.00     0          0          0          0
CS140            135.00     0          0          0          0
CS180            126.83     0          0          0          0
CS181            128.70     0          0          0          0
CS182            131.47     0          0          0          0
CS183            133.46     0          0          0          0
CS184            135.00     0          0          0          0
CS185            135.00     0          0          0          0
CS190            139.25     0          0          0          0
CS200            129.00     0          0          0          0
CS201            129.00     0          0          0          0
CS220            131.00     0          0          0          0
CS221            131.00     0          0          0          0
CS250            112.10     0          0          0          0
CS251            114.70     0          0          0          0
CS252            115.90     0          0          0          0
CS253            115.60     0          0          0          0
CS254            115.36     0          0          0          0
CS255            118.10     0          0          0          0
CS256            122.11     0          0          0          0
CS257            125.00     0          0          0          0
CS270            117.12     0          0          0          0
CS271            121.11     0          0          0          0
CS272            125.00     0          0          0          0
CS273            118.61     0          0          0          0
CS290            114.95     0          0          0          0
CS291            113.39     0          0          0          0
CS300            115.60     0          0          0          0
CS301            118.15     0          0          0          0
CS302            118.00     0          0          0          0
CS303            118.00     0          0          0          0
CS310            119.45     0          0          0          0
CS319            117.56     0          0          0          0
CS320            119.38     0          0          0          0
CS321            122.71     0          0          0          0
CS322            120.72     0          0          0          0
CS323            122.98     0          0          0          0
CS324            122.44     0          0          0          0
CS325            123.00     0          0          0          0
CS330            124.77     0          0          0          0
CS331            124.79     0          0          0          0
CS350            121.30     0          0          0          0
CS351            126.48     0          0          0          0
CS360            124.30     0          0          0          0
CS361            128.08     0          0          0          0
CS370            123.39     0          0          0          0
CS371            128.03     0          0          0          0
CS372            130.45     0          0          0          0
CS373            131.17     0          0          0          0
CS374            134.27     0          0          0          0
CS380            132.77     0          0          0          0
PS               118.00     0          0          0          0
Basin            118.00     0          0          0          0
CS088OF          122.00     0          0          0          0
CS132OF          128.00     0          0          0          0

[STORAGE]
;;Name           Elev       MaxDepth   InitDepth  Shape      Curve/Params
;;-------------- ---------- ---------- ---------- ---------- ----------
CS001            104.00     -8.90      0          FUNCTIONAL 170.00 0          0

[CONDUITS]
;;Name           From             To               Length     Roughness  InOffset   OutOffset  InitFlow   MaxFlow
;;-------------- ---------------- ---------------- ---------- ---------- ---------- ---------- ---------- ----------
CS002CS001       CS002            CS001            30.00      0.0140     93.93      93.85      0          0
CS003CS002       CS003            CS002            98.00      0.0140     94.18      93.93      0          0
CS004CS003       CS004            CS003            395.00     0.0140     94.91      94.18      0          0
CS005CS004       CS005            CS004            290.00     0.0140     95.64      94.91      0          0
CS006CS005       CS006            CS005            340.00     0.0140     96.49      95.64      0          0
CS007CS006       CS007            CS006            340.00     0.0140     97.34      96.49      0          0
CS008CS007       CS008            CS007            195.00     0.0140     97.83      97.34      0          0
CS020CS006       CS020            CS006            290.00     0.0140     98.06      97.34      0          0
CS021CS020       CS021            CS020            337.00     0.0140     98.93      97.57      0          0
CS022CS021       CS022            CS021            330.00     0.0140     100.25     98.93      0          0
CS050CS020       CS050            CS020            290.00     0.0140     101.07     100.61     0          0
CS051CS050       CS051            CS050            210.00     0.0140     100.64     99.65      0          0
CS052CS051       CS052            CS051            215.00     0.0140     101.68     100.64     0          0
CS053CS052       CS053            CS052            255.00     0.0140     102.72     101.68     0          0
CS054CS053       CS054            CS053            250.00     0.0140     103.69     102.72     0          0
CS055CS054       CS055            CS054            285.00     0.0140     104.83     103.69     0          0
CS056CS055       CS056            CS055            120.00     0.0140     108.24     104.83     0          0
CS070CS050       CS070            CS050            318.00     0.0140     101.58     101.07     0          0
CS071CS070       CS071            CS070            310.00     0.0140     102.60     101.05     0          0
CS072CS071       CS072            CS071            312.00     0.0140     104.16     102.60     0          0
CS073CS072       CS073            CS072            380.00     0.0140     106.06     104.16     0          0
CS074CS073       CS074            CS073            442.00     0.0140     107.83     106.06     0          0
CS080CS070       CS080            CS070            318.00     0.0140     101.58     101.07     0          0
CS081CS080       CS081            CS080            323.00     0.0140     102.10     101.58     0          0
CS082CS081       CS082            CS081            380.00     0.0140     104.86     103.72     0          0
CS083CS082       CS083            CS082            375.00     0.0140     107.71     104.86     0          0
CS084CS083       CS084            CS083            347.00     0.0140     107.71     107.71     0          0
CS085CS084       CS085            CS084            375.00     0.0140     107.71     107.71     0          0
CS086CS085       CS086            CS085            375.00     0.0140     110.46     107.71     0          0
CS087CS086       CS087            CS086            378.00     0.0140     110.30     110.46     0          0
CS088CS087       CS088            CS087            130.00     0.0140     111.02     110.30     0          0
CS089CS088       CS089            CS088            132.00     0.0140     116.59     116.22     0          0
CS090CS087       CS090            CS087            400.00     0.0140     118.30     114.30     0          0
CS091CS090       CS091            CS090            45.00      0.0140     122.46     118.30     0          0
CS092CS091       CS092            CS091            382.00     0.0140     126.28     122.46     0          0
CS093CS092       CS093            CS092            290.00     0.0140     127.43     126.28     0          0
CS094CS093       CS094            CS093            330.00     0.0140     128.74     127.43     0          0
CS100CS088       CS100            CS088            338.00     0.0140     113.74     111.73     0          0
CS101CS100       CS101            CS100            197.00     0.0140     114.49     113.74     0          0
CS102CS101       CS102            CS101            195.00     0.0140     115.27     114.49     0          0
CS110CS100       CS110            CS100            314.00     0.0140     116.88     113.76     0          0
CS111CS110       CS111            CS110            180.00     0.0140     117.60     116.88     0          0
CS112CS111       CS112            CS111            423.00     0.0140     119.29     117.60     0          0
CS120CS110       CS120            CS110            63.00      0.0140     117.13     116.88     0          0
CS121CS110       CS121            CS110            290.00     0.0140     123.09     119.60     0          0
CS130CS088       CS130            CS088            257.00     0.0140     114.94     111.40     0          0
CS131CS130       CS131            CS130            257.00     0.0140     117.36     114.96     0          0
CS132CS131       CS132            CS131            336.00     0.0140     120.09     116.94     0          0
CS133CS132       CS133            CS132            195.00     0.0140     120.87     120.09     0          0
CS134CS133       CS134            CS133            240.00     0.0140     121.83     120.87     0          0
CS140CS132       CS140            CS132            426.00     0.0140     128.95     120.09     0          0
CS180CS131       CS180            CS131            309.00     0.0140     119.24     116.88     0          0
CS181CS180       CS181            CS180            318.00     0.0140     120.28     119.27     0          0
CS182CS181       CS182            CS181            333.00     0.0140     121.60     120.40     0          0
CS183CS182       CS183            CS182            173.00     0.0140     122.75     121.62     0          0
CS184CS183       CS184            CS183            315.00     0.0140     124.01     122.75     0          0
CS185CS184       CS185            CS184            210.00     0.0140     124.85     124.01     0          0
CS190CS183       CS190            CS183            266.00     0.0140     128.54     125.12     0          0
CS200CS181       CS200            CS181            240.00     0.0140     121.24     120.28     0          0
CS201CS200       CS201            CS200            350.00     0.0140     122.64     121.24     0          0
CS220CS182       CS220            CS182            335.00     0.0140     122.94     121.60     0          0
CS221CS220       CS221            CS220            365.00     0.0140     124.40     122.94     0          0
CS250CS081       CS250            CS081            291.00     0.0140     103.87     102.10     0          0
CS251CS250       CS251            CS250            288.00     0.0140     105.03     103.87     0          0
CS252CS251       CS252            CS251            272.00     0.0140     106.11     105.03     0          0
CS253CS252       CS253            CS252            273.00     0.0140     107.21     106.11     0          0
CS254CS253       CS254            CS253            284.00     0.0140     106.33     107.21     0          0
CS255CS254       CS255            CS254            275.00     0.0140     107.40     106.33     0          0
CS256CS255       CS256            CS255            384.00     0.0140     113.33     107.40     0          0
CS257CS256       CS257            CS256            333.00     0.0140     118.00     113.33     0          0
CS270CS255       CS270            CS255            276.00     0.0140     108.57     107.40     0          0
CS271CS270       CS271            CS270            393.00     0.0140     112.66     110.09     0          0
CS272CS271       CS272            CS271            341.00     0.0140     118.00     112.66     0          0
CS273CS270       CS273            CS270            224.00     0.0140     112.01     110.09     0          0
CS290CS270       CS290            CS270            253.00     0.0140     109.06     108.57     0          0
CS291CS290       CS291            CS290            153.00     0.0140     109.21     109.06     0          0
CS300CS253       CS300            CS253            290.00     0.0140     108.37     107.21     0          0
CS301CS300       CS301            CS300            293.00     0.0140     109.52     108.37     0          0
CS302CS301       CS302            CS301            230.00     0.0140     110.44     109.52     0          0
CS303CS302       CS303            CS302            250.00     0.0140     111.44     110.44     0          0
CS310CS301       CS310            CS301            200.00     0.0140     110.32     109.52     0          0
CS319CS301       CS319            CS301            283.00     0.0140     108.60     107.35     0          0
CS320CS319       CS320            CS319            280.00     0.0140     109.58     108.60     0          0
CS321CS320       CS321            CS320            306.00     0.0140     111.31     109.78     0          0
CS322CS321       CS322            CS321            392.00     0.0140     112.60     111.31     0          0
CS323CS322       CS323            CS322            193.00     0.0140     113.95     112.60     0          0
CS324CS323       CS324            CS323            200.00     0.0140     114.57     113.95     0          0
CS325CS324       CS325            CS324            40.00      0.0140     114.73     114.57     0          0
CS330CS323       CS330            CS323            141.00     0.0140     116.38     114.57     0          0
CS331CS330       CS331            CS330            92.00      0.0140     117.00     116.38     0          0
CS350CS320       CS350            CS320            370.00     0.0140     113.01     109.78     0          0
CS351CS350       CS351            CS350            353.00     0.0140     118.37     113.01     0          0
CS360CS321       CS360            CS321            371.00     0.0140     115.96     113.01     0          0
CS361CS360       CS361            CS360            344.00     0.0140     119.62     115.96     0          0
CS370CS321       CS370            CS321            168.00     0.0140     115.37     113.01     0          0
CS371CS370       CS371            CS370            264.00     0.0140     119.58     115.37     0          0
CS372CS371       CS372            CS371            221.00     0.0140     122.07     119.58     0          0
CS373CS372       CS373            CS372            170.00     0.0140     123.22     122.07     0          0
CS374CS373       CS374            CS373            165.00     0.0140     126.42     123.22     0          0
CS380CS372       CS380            CS372            238.00     0.0140     124.93     0          0          0
OutPipe          PS               Basin            100.00     0.0140     108.00     107.00     0          0
OFCS088          CS088            CS088OF          33.00      0.0140     111.90     111.00     0          0
OFCS132          CS132            CS132OF          33.00      0.0140     121.83     121.00     0          0

[PUMPS]
;;Name           From             To               PumpCurve  Status   Startup    Shutoff
;;-------------- ---------------- ---------------- ---------- -------- ---------- ----------
Cole             CS001            PS               *          ON       0          0         

[XSECTIONS]
;;Link           Shape        Geom1      Geom2      Geom3      Geom4      Barrels
;;-------------- ------------ ---------- ---------- ---------- ---------- ----------
CS002CS001       CIRCULAR     1.25       0          0          0          1
CS003CS002       CIRCULAR     1.25       0          0          0          1
CS004CS003       CIRCULAR     1.25       0          0          0          1
CS005CS004       CIRCULAR     1.25       0          0          0          1
CS006CS005       CIRCULAR     1.25       0          0          0          1
CS007CS006       CIRCULAR     1.25       0          0          0          1
CS008CS007       CIRCULAR     0.67       0          0          0          1
CS020CS006       CIRCULAR     1.25       0          0          0          1
CS021CS020       CIRCULAR     0.67       0          0          0          1
CS022CS021       CIRCULAR     0.67       0          0          0          1
CS050CS020       CIRCULAR     1.25       0          0          0          1
CS051CS050       CIRCULAR     0.67       0          0          0          1
CS052CS051       CIRCULAR     0.67       0          0          0          1
CS053CS052       CIRCULAR     0.67       0          0          0          1
CS054CS053       CIRCULAR     0.67       0          0          0          1
CS055CS054       CIRCULAR     0.67       0          0          0          1
CS056CS055       CIRCULAR     0.67       0          0          0          1
CS070CS050       CIRCULAR     1.25       0          0          0          1
CS071CS070       CIRCULAR     0.67       0          0          0          1
CS072CS071       CIRCULAR     0.67       0          0          0          1
CS073CS072       CIRCULAR     0.67       0          0          0          1
CS074CS073       CIRCULAR     0.67       0          0          0          1
CS080CS070       CIRCULAR     1.25       0          0          0          1
CS081CS080       CIRCULAR     1.25       0          0          0          1
CS082CS081       CIRCULAR     0.83       0          0          0          1
CS083CS082       CIRCULAR     0.83       0          0          0          1
CS084CS083       CIRCULAR     0.83       0          0          0          1
CS085CS084       CIRCULAR     0.83       0          0          0          1
CS086CS085       CIRCULAR     0.67       0          0          0          1
CS087CS086       CIRCULAR     0.67       0          0          0          1
CS088CS087       CIRCULAR     0.67       0          0          0          1
CS089CS088       CIRCULAR     0.67       0          0          0          1
CS090CS087       CIRCULAR     0.67       0          0          0          1
CS091CS090       CIRCULAR     0.67       0          0          0          1
CS092CS091       CIRCULAR     0.67       0          0          0          1
CS093CS092       CIRCULAR     0.67       0          0          0          1
CS094CS093       CIRCULAR     0.67       0          0          0          1
CS100CS088       CIRCULAR     0.67       0          0          0          1
CS101CS100       CIRCULAR     0.67       0          0          0          1
CS102CS101       CIRCULAR     0.67       0          0          0          1
CS110CS100       CIRCULAR     0.67       0          0          0          1
CS111CS110       CIRCULAR     0.67       0          0          0          1
CS112CS111       CIRCULAR     0.67       0          0          0          1
CS120CS110       CIRCULAR     0.67       0          0          0          1
CS121CS110       CIRCULAR     0.67       0          0          0          1
CS130CS088       CIRCULAR     0.67       0          0          0          1
CS131CS130       CIRCULAR     0.67       0          0          0          1
CS132CS131       CIRCULAR     0.67       0          0          0          1
CS133CS132       CIRCULAR     0.67       0          0          0          1
CS134CS133       CIRCULAR     0.67       0          0          0          1
CS140CS132       CIRCULAR     0.67       0          0          0          1
CS180CS131       CIRCULAR     0.67       0          0          0          1
CS181CS180       CIRCULAR     0.67       0          0          0          1
CS182CS181       CIRCULAR     0.67       0          0          0          1
CS183CS182       CIRCULAR     0.67       0          0          0          1
CS184CS183       CIRCULAR     0.67       0          0          0          1
CS185CS184       CIRCULAR     0.67       0          0          0          1
CS190CS183       CIRCULAR     0.67       0          0          0          1
CS200CS181       CIRCULAR     0.67       0          0          0          1
CS201CS200       CIRCULAR     0.67       0          0          0          1
CS220CS182       CIRCULAR     0.67       0          0          0          1
CS221CS220       CIRCULAR     0.67       0          0          0          1
CS250CS081       CIRCULAR     0.67       0          0          0          1
CS251CS250       CIRCULAR     0.67       0          0          0          1
CS252CS251       CIRCULAR     0.67       0          0          0          1
CS253CS252       CIRCULAR     0.67       0          0          0          1
CS254CS253       CIRCULAR     0.67       0          0          0          1
CS255CS254       CIRCULAR     0.67       0          0          0          1
CS256CS255       CIRCULAR     0.67       0          0          0          1
CS257CS256       CIRCULAR     0.67       0          0          0          1
CS270CS255       CIRCULAR     0.67       0          0          0          1
CS271CS270       CIRCULAR     0.67       0          0          0          1
CS272CS271       CIRCULAR     0.67       0          0          0          1
CS273CS270       CIRCULAR     0.67       0          0          0          1
CS290CS270       CIRCULAR     0.67       0          0          0          1
CS291CS290       CIRCULAR     0.67       0          0          0          1
CS300CS253       CIRCULAR     0.67       0          0          0          1
CS301CS300       CIRCULAR     0.67       0          0          0          1
CS302CS301       CIRCULAR     0.67       0          0          0          1
CS303CS302       CIRCULAR     0.67       0          0          0          1
CS310CS301       CIRCULAR     0.67       0          0          0          1
CS319CS301       CIRCULAR     0.67       0          0          0          1
CS320CS319       CIRCULAR     0.67       0          0          0          1
CS321CS320       CIRCULAR     0.67       0          0          0          1
CS322CS321       CIRCULAR     0.67       0          0          0          1
CS323CS322       CIRCULAR     0.67       0          0          0          1
CS324CS323       CIRCULAR     0.67       0          0          0          1
CS325CS324       CIRCULAR     0.67       0          0          0          1
CS330CS323       CIRCULAR     0.67       0          0          0          1
CS331CS330       CIRCULAR     0.67       0          0          0          1
CS350CS320       CIRCULAR     0.67       0          0          0          1
CS351CS350       CIRCULAR     0.67       0          0          0          1
CS360CS321       CIRCULAR     0.67       0          0          0          1
CS361CS360       CIRCULAR     0.67       0          0          0          1
CS370CS321       CIRCULAR     0.67       0          0          0          1
CS371CS370       CIRCULAR     0.67       0          0          0          1
CS372CS371       CIRCULAR     0.67       0          0          0          1
CS373CS372       CIRCULAR     0.67       0          0          0          1
CS374CS373       CIRCULAR     0.67       0          0          0          1
CS380CS372       CIRCULAR     0.67       0          0          0          1
OutPipe          CIRCULAR     2.00       0          0          0          1
OFCS088          CIRCULAR     1.00       0          0          0          1
OFCS132          CIRCULAR     1.00       0          0          0          1

[LOSSES]
;;Link           Inlet      Outlet     Average    Flap Gate
;;-------------- ---------- ---------- ---------- ----------
CS002CS001       0          0          0          NO
CS003CS002       0          0          0          NO
CS004CS003       0          0          0          NO
CS005CS004       0          0          0          NO
CS006CS005       0          0          0          NO
CS007CS006       0          0          0          NO
CS008CS007       0          0          0          NO
CS020CS006       0          0          0          NO
CS021CS020       0          0          0          NO
CS022CS021       0          0          0          NO
CS050CS020       0          0          0          NO
CS051CS050       0          0          0          NO
CS052CS051       0          0          0          NO
CS053CS052       0          0          0          NO
CS054CS053       0          0          0          NO
CS055CS054       0          0          0          NO
CS056CS055       0          0          0          NO
CS070CS050       0          0          0          NO
CS071CS070       0          0          0          NO
CS072CS071       0          0          0          NO
CS073CS072       0          0          0          NO
CS074CS073       0          0          0          NO
CS080CS070       0          0          0          NO
CS081CS080       0          0          0          NO
CS082CS081       0          0          0          NO
CS083CS082       0          0          0          NO
CS084CS083       0          0          0          NO
CS085CS084       0          0          0          NO
CS086CS085       0          0          0          NO
CS087CS086       0          0          0          NO
CS088CS087       0          0          0          NO
CS089CS088       0          0          0          NO
CS090CS087       0          0          0          NO
CS091CS090       0          0          0          NO
CS092CS091       0          0          0          NO
CS093CS092       0          0          0          NO
CS094CS093       0          0          0          NO
CS100CS088       0          0          0          NO
CS101CS100       0          0          0          NO
CS102CS101       0          0          0          NO
CS110CS100       0          0          0          NO
CS111CS110       0          0          0          NO
CS112CS111       0          0          0          NO
CS120CS110       0          0          0          NO
CS121CS110       0          0          0          NO
CS130CS088       0          0          0          NO
CS131CS130       0          0          0          NO
CS132CS131       0          0          0          NO
CS133CS132       0          0          0          NO
CS134CS133       0          0          0          NO
CS140CS132       0          0          0          NO