;; SWMM5 .inp converted from XPSWMM .xp file
;; Generated by XPSWMM Card Reader
;; Source format: XP_CARD | Original title: (none)

[TITLE]
;;Project Title/Notes
Converted from XPSWMM .xp file

[OPTIONS]
FLOW_UNITS           CFS
INFILTRATION         HORTON
FLOW_ROUTING         DYNWAVE
LINK_OFFSETS         DEPTH
MIN_SLOPE            0.0
ALLOW_PONDING        NO
SKIP_STEADY_STATE    NO
ROUTING_STEP         00:00:60
VARIABLE_STEP        0.75
INERTIAL_DAMPING     PARTIAL
NORMAL_FLOW_LIMITED  BOTH
MAX_TRIALS           50
HEAD_TOLERANCE       0.00033

[JUNCTIONS]
;;Name           Elev       MaxDepth   InitDepth  SurDepth   Aponded
;;-------------- ---------- ---------- ---------- ---------- ----------
NE2636.04        1049.00    0          0          0          0
NE2628.23        1024.00    0          0          0          0
NE2620.93        1022.00    0          0          0          0
NE2620.65        1014.00    0          0          0          0
NE2620.56        1010.00    0          0          0          0
NE2620.47        1010.00    0          0          0          0
NE2620.26        1008.00    0          0          0          0
NE               1036.00    0          0          0          0
NE2627.40        1031.00    0          0          0          0
NE2619.90        1032.00    0          0          0          0
NE2619.65        1021.00    0          0          0          0
NE2619.54        1016.00    0          0          0          0
NE2620.04        1006.00    0          0          0          0
NE2612.94        1008.00    0          0          0          0
J1               1000.00    0          0          0          0
NE2611.90        1007.00    0          0          0          0
NE2612.55        990.00     0          0          0          0
NE2612.45        988.00     0          0          0          0
NE2612.13        986.00     0          0          0          0
NE2604.92        988.00     0          0          0          0
WH2602.681       1018.00    0          0          0          0
WH2602.682       1018.00    0          0          0          0
NE2603.70        1008.00    0          0          0          0
NE2603.80        1008.00    0          0          0          0
NE2603.92        1007.00    0          0          0          0
NE2605.90        986.00     0          0          0          0
NE2613.04        988.00     0          0          0          0
NE2613.06        978.00     0          0          0          0
NE2619.192       974.00     0          0          0          0
NE1844.14        1014.00    0          0          0          0
NE1844.35        1004.00    0          0          0          0
NE1844.46        1002.00    0          0          0          0
NE1844.68        996.00     0          0          0          0
NE1845.81        992.00     0          0          0          0
NE1845.84        990.00     0          0          0          0
NE1837.93        1010.00    0          0          0          0
NE1845.23        1002.00    0          0          0          0
NE1845.54        996.00     0          0          0          0
NE1845.94        988.00     0          0          0          0
NE2605.15        984.00     0          0          0          0
NE2605.36        982.00     0          0          0          0
NE2606.80        976.00     0          0          0          0
2605.68          978.00     0          0          0          0
NE2605.98        976.00     0          0          0          0
NE2613.191       974.00     0          0          0          0
NE2613.194       980.00     0          0          0          0

[STORAGE]
;;Name           Elev       MaxDepth   InitDepth  Shape      Curve/Params
;;-------------- ---------- ---------- ---------- ---------- ----------
NE2613.193       980.00     0          0          FUNCTIONAL 0 0          0
POND             1007.00    0          0          FUNCTIONAL 0 0          0
POND             1000.00    0          0          FUNCTIONAL 0 0          0

[CONDUITS]
;;Name           From             To               Length     Roughness  InOffset   OutOffset  InitFlow   MaxFlow
;;-------------- ---------------- ---------------- ---------- ---------- ---------- ---------- ---------- ----------
B1               NE2636.04        NE2628.23        896.42     0.0120     1044.50    1021.00    0          0
B2               NE2628.23        NE2620.93        239.42     0.0120     1021.00    1017.50    0          0
B3               NE2620.93        NE2620.65        344.54     0.0120     1017.50    1009.50    0          0
B4               NE2620.65        NE2620.56        194.32     0.0120     1009.50    1005.50    0          0
B5               NE2620.56        NE2620.47        103.95     0.0120     1005.50    1003.00    0          0
P1               NE2620.47        NE2620.26        202.02     0.0120     1003.00    1000.50    0          0
P2               NE               NE2627.40        144.73     0.0120     1032.50    1027.50    0          0
P3               NE2627.40        NE2619.90        484.29     0.0120     1027.50    1025.00    0          0
P4               NE2619.90        NE2619.65        628.71     0.0120     1025.00    1017.50    0          0
P5               NE2619.65        NE2619.54        127.19     0.0120     1017.50    1012.00    0          0
CH1              NE2620.26        NE2620.04        271.36     0.0350     1000.50    998.00     0          0
P6               NE2620.04        NE2612.94        59.70      0.0120     998.00     994.00     0          0
CH2              NE2619.54        J1               650.00     0.0350     1012.00    992.00     0          0
CH4              NE2612.94        NE2612.55        450.00     0.0350     994.00     985.00     0          0
P7               NE2612.55        NE2612.45        91.85      0.0120     985.00     982.00     0          0
CH5              NE2612.45        NE2612.13        420.00     0.0350     982.00     981.00     0          0
P8               NE2604.92        NE2612.13        174.26     0.0120     984.00     981.00     0          0
P9               WH2602.681       WH2602.682       23.59      0.0120     1014.50    1014.00    0          0
P10              WH2602.682       NE2603.70        321.16     0.0120     1014.00    1006.00    0          0
P11              NE2603.70        NE2603.80        30.50      0.0120     1006.00    1004.00    0          0
CH7              NE2603.80        NE2603.92        168.95     0.0350     1004.00    1002.00    0          0
CH8              NE2603.92        NE2612.13        1175.00    0.0350     1002.00    981.00     0          0
CH9              NE2612.13        NE2605.90        710.00     0.0350     981.00     976.00     0          0
B6               NE2605.90        NE2613.04        434.40     0.0120     976.00     972.00     0          0
CH10             NE2613.04        NE2613.06        180.00     0.0350     972.00     970.00     0          0
B7               NE2613.06        NE2619.192       303.29     0.0120     970.00     969.00     0          0
P12              NE1844.14        NE1844.35        235.44     0.0120     1010.50    1001.50    0          0
P13              NE1844.35        NE1844.46        39.35      0.0120     1001.50    998.50     0          0
P14              NE1844.46        NE1844.68        328.85     0.0120     998.50     992.50     0          0
P15              NE1844.68        NE1845.81        352.37     0.0120     992.50     988.50     0          0
P16              NE1845.81        NE1845.84        291.03     0.0120     988.50     986.50     0          0
P17              NE1837.93        NE1845.23        302.66     0.0120     1007.00    998.50     0          0
P18              NE1845.23        NE1845.54        333.67     0.0120     998.50     992.00     0          0
P19              NE1845.54        NE1845.84        336.98     0.0120     992.00     986.50     0          0
P20              NE1845.84        NE1845.94        90.15      0.0120     986.50     983.50     0          0
P21              NE1845.94        NE2605.15        174.01     0.0120     983.50     979.50     0          0
P22              NE2605.15        NE2605.36        287.24     0.0120     979.50     977.00     0          0
P23              NE2605.36        2605.68          292.32     0.0120     977.00     973.50     0          0
P24              2605.68          NE2606.80        347.65     0.0120     973.50     971.50     0          0
P25              NE2606.80        NE2605.98        239.72     0.0120     971.50     971.00     0          0
P26              NE2605.98        NE2613.191       146.62     0.0120     971.00     969.00     0          0
P27              NE2613.193       NE2613.194       53.17      0.0120     968.50     968.00     0          0
CH100            NE2619.192       NE2613.193       15.00      0.0350     969.00     968.50     0          0
CH101            NE2613.191       NE2613.193       15.00      0.0350     969.00     968.50     0          0
105              NE2611.90        POND             200.00     0.0350     1004.00    997.00     0          0
106              POND             J1               100.00     0.0120     997.00     992.00     0          0
108              J1               POND             200.00     0.0350     992.00     988.00     0          0
109              POND             NE2612.13        200.00     0.0140     988.00     981.00     0          0

[XSECTIONS]
;;Link           Shape        Geom1      Geom2      Geom3      Geom4      Barrels
;;-------------- ------------ ---------- ---------- ---------- ---------- ----------
B1               RECT_CLOSED  3.00       8.00       0          0          1
B2               RECT_CLOSED  3.00       8.00       0          0          1
B3               RECT_CLOSED  3.00       8.00       0          0          1
B4               RECT_CLOSED  3.00       8.00       0          0          1
B5               RECT_CLOSED  3.00       8.00       0          0          1
P1               HORSESHOE    6.25       0          0          0          1
P2               CIRCULAR     2.00       0          0          0          1
P3               CIRCULAR     2.00       0          0          0          1
P4               CIRCULAR     2.00       0          0          0          1
P5               CIRCULAR     2.00       0          0          0          1
CH1              TRAPEZOIDAL  3.00       4.00       0          0          1
P6               HORSESHOE    6.25       0          0          0          1
CH2              TRAPEZOIDAL  4.00       4.00       0          0          1
CH4              TRAPEZOIDAL  3.00       4.00       0          0          1
P7               CIRCULAR     3.50       0          0          0          2
CH5              TRAPEZOIDAL  4.00       4.00       0          0          1
P8               CIRCULAR     2.00       0          0          0          1
P9               CIRCULAR     1.50       0          0          0          1
P10              CIRCULAR     1.50       0          0          0          1
P11              CIRCULAR     1.50       0          0          0          1
CH7              TRAPEZOIDAL  2.00       4.00       0          0          1
CH8              TRAPEZOIDAL  4.00       4.00       0          0          1
CH9              TRAPEZOIDAL  4.00       5.00       0          0          1
B6               RECT_CLOSED  6.00       6.00       0          0          1
CH10             TRAPEZOIDAL  8.00       10.00      0          0          1
B7               RECT_CLOSED  4.00       14.00      0          0          1
P12              CIRCULAR     2.00       0          0          0          1
P13              CIRCULAR     2.00       0          0          0          1
P14              CIRCULAR     2.00       0          0          0          1
P15              CIRCULAR     2.00       0          0          0          1
P16              CIRCULAR     2.00       0          0          0          1
P17              CIRCULAR     1.50       0          0          0          1
P18              CIRCULAR     2.00       0          0          0          1
P19              CIRCULAR     2.50       0          0          0          1
P20              CIRCULAR     3.00       0          0          0          1
P21              CIRCULAR     3.00       0          0          0          1
P22              CIRCULAR     3.00       0          0          0          1
P23              CIRCULAR     3.50       0          0          0          1
P24              CIRCULAR     3.50       0          0          0          1
P25              CIRCULAR     4.00       0          0          0          1
P26              CIRCULAR     4.00       0          0          0          1
P27              HORSESHOE    7.00       8.00       0          0          1
CH100            TRAPEZOIDAL  5.00       35.00      0          0          1
CH101            TRAPEZOIDAL  5.00       30.00      0          0          1
105              TRAPEZOIDAL  3.00       4.00       0          0          1
106              CIRCULAR     2.00       0          0          0          1
108              TRAPEZOIDAL  4.00       4.00       0          0          1
109              CIRCULAR     2.00       0          0          0          1

[LOSSES]
;;Link           Inlet      Outlet     Average    Flap Gate
;;-------------- ---------- ---------- ---------- ----------
B1               0          0          0          NO
B2               0          0          0          NO
B3               0          0          0          NO
B4               0          0          0          NO
B5               0          0          0          NO
P1               0          0          0          NO
P2               0          0          0          NO
P3               0          0          0          NO
P4               0          0          0          NO
P5               0          0          0          NO
CH1              0          0          0          NO
P6               0          0          0          NO
CH2              0          0          0          NO
CH4              0          0          0          NO
P7               0          0          0          NO
CH5              0          0          0          NO
P8               0          0          0          NO
P9               0          0          0          NO
P10              0          0          0          NO
P11              0          0          0          NO
CH7              0          0          0          NO
CH8              0          0          0          NO
CH9              0          0          0          NO
B6               0          0          0          NO
CH10             0          0          0          NO
B7               0          0          0          NO
P12              0          0          0          NO
P13              0          0          0          NO
P14              0          0          0          NO
P15              0          0          0          NO
P16              0          0          0          NO
P17              0          0          0          NO
P18              0          0          0          NO
P19              0          0          0          NO
P20              0          0          0          NO
P21              0          0          0          NO
P22              0          0          0          NO
P23              0          0          0          NO
P24              0          0          0          NO
P25              0          0          0          NO
P26              0          0          0          NO
P27              0          0          0          NO
CH100            0          0          0          NO
CH101            0          0          0          NO
105              0          0          0          NO
106              0          0          0          NO
108              0          0          0          NO
109              0          0          0          NO

[COORDINATES]
;;Node           X-Coord            Y-Coord
;;-------------- ------------------ ------------------
NE2636.04        -197428.72         1579844.82        
NE2628.23        -198318.77         1579738.21        
NE2620.93        -198555.76         1579772.25        
NE2620.65        -198866.07         1579921.95        
NE2620.56        -199015.34         1580046.36        
NE2620.47        -199075.94         1580130.83        
NE2620.26        -199252.82         1580033.23        
NE               -197945.77         1578504.04        
NE2627.40        -198085.83         1578467.58        
NE2619.90        -198569.76         1578448.89        
NE2619.65        -198931.13         1578963.37        
NE2619.54        -199045.32         1578907.53        
NE2620.04        -199500.68         1579922.78        
NE2612.94        -199552.70         1579920.50        
J1               -199680.94         1578919.69        
NE2611.90        -199543.25         1578474.76        
NE2612.55        -199958.29         1579975.43        
NE2612.45        -200044.98         1580005.78        
NE2612.13        -200434.50         1579814.05        
NE2604.92        -200556.48         1579701.85        
WH2602.681       -200917.79         1578266.95        
WH2602.682       -200896.36         1578289.09        
NE2603.70        -200701.60         1578516.70        
NE2603.80        -200670.60         1578547.70        
NE2603.92        -200627.91         1578713.11        
NE2605.90        -200590.67         1580509.18        
NE2613.04        -200484.92         1580928.05        
NE2613.06        -200452.02         1581094.48        
NE2619.192       -200400.67         1581393.40        
NE1844.14        -202335.67         1579880.11        
NE1844.35        -202149.05         1580020.00        
NE1844.46        -202113.65         1580044.68        
NE1844.68        -201861.64         1580253.20        
NE1845.81        -201690.85         1580561.41        
NE1845.84        -201629.53         1580845.91        
NE1837.93        -202602.27         1580819.95        
NE1845.23        -202299.61         1580818.34        
NE1845.54        -201966.20         1580831.63        
NE1845.94        -201540.31         1580858.80        
NE2605.15        -201390.16         1580946.75        
NE2605.36        -201168.72         1581129.69        
NE2606.80        -200670.95         1581531.90        
2605.68          -200942.04         1581314.27        
NE2605.98        -200549.15         1581325.43        
NE2613.191       -200416.67         1581392.03        
NE2613.193       -200400.63         1581413.99        
NE2613.194       -200351.82         1581435.08        
POND             -199662.79         1578860.74        
POND             -200173.29         1579497.29        

[MAP]
DIMENSIONS -202602.27 1578266.95 -197428.72 1581531.90
Units      None

[REPORT]
INPUT            YES
SUBCATCHMENTS    ALL
NODES            ALL
LINKS            ALL



