;; SWMM5 .inp converted from XPSWMM .xp file
;; Generated by XPSWMM Card Reader
;; Source format: XP_CARD | Original title: (none)

[TITLE]
;;Project Title/Notes
Converted from XPSWMM .xp file

[OPTIONS]
FLOW_UNITS           CFS
INFILTRATION         HORTON
FLOW_ROUTING         DYNWAVE
LINK_OFFSETS         DEPTH
MIN_SLOPE            0.0
ALLOW_PONDING        NO
SKIP_STEADY_STATE    NO
ROUTING_STEP         00:00:60
VARIABLE_STEP        0.75
INERTIAL_DAMPING     PARTIAL
NORMAL_FLOW_LIMITED  BOTH
MAX_TRIALS           50

[JUNCTIONS]
;;Name           Elev       MaxDepth   InitDepth  SurDepth   Aponded
;;-------------- ---------- ---------- ---------- ---------- ----------
PR08             7.80       0          5.80       0          0
B1-E             8.30       0          6.00       0          0
B2-N             8.30       0          6.00       0          0
B2-S             9.20       0          6.10       0          0
B3-W             9.20       0          6.10       0          0
B3-E             8.67       0          5.70       0          0
S-194-W          8.67       0          5.70       0          0
S194-E           11.40      0          6.80       0          0
B4-W             10.20      0          5.30       0          0
B4-E             11.30      0          6.50       0          0
B5-N             11.30      0          6.50       0          0
B5-S             9.80       0          5.00       0          0
B6-W             9.80       0          5.00       0          0
B6-E             9.30       0          5.50       0          0
B7-N             9.30       0          5.50       0          0
B7-S             9.50       0          6.80       0          0
B8-N             9.50       0          6.80       0          0
B8-S             8.50       0          6.80       0          0
S-165-N          8.50       0          6.80       0          0
S-165-S          8.50       0          6.80       0          0
B9-N             8.50       0          6.80       0          0
B9-S             7.40       0          9.70       0          0
B10-N            7.40       0          9.70       0          0
B10-S            8.70       0          11.60      0          0
B11-N            8.70       0          11.60      0          0
B11-S            9.10       0          11.60      0          0
B12-W            9.10       0          11.60      0          0
B12-E            7.10       0          10.70      0          0
C102-1           8.16       0          12.90      0          0
B13-W            5.48       0          12.90      0          0
B13-E            7.00       0          12.80      0          0
PR03             7.16       0          12.80      0          0
B14-E            5.70       0          24.40      0          0
C102-2           5.90       0          24.40      0          0
S21A             5.70       0          24.40      0          0
B16-S            6.80       0          9.30       0          0
PR04A            10.50      0          8.30       0          0
B15-E            10.50      0          8.30       0          0
B15-W            7.47       0          9.40       0          0
S195-E           7.47       0          9.40       0          0
S195-W           6.90       0          9.50       0          0
U3-S             6.90       0          9.50       0          0
U3-N             7.74       0          9.50       0          0
U2-S             7.74       0          8.90       0          0
U2-N             8.20       0          10.60      0          0
U1-S             8.20       0          10.60      0          0
U1-N             8.20       0          5.40       0          0
PR07             11.40      0          6.80       0          0
L31E-5           7.50       0          14.20      0          0
L31E-4           7.90       0          14.20      0          0
GLDS-2           5.92       0          5.80       0          0
U5-W             5.92       0          5.80       0          0
GLDS-1           6.78       0          3.50       0          0
U5-E             4.70       0          8.30       0          0
GLDS-3           8.40       0          11.30      0          0
L31E-6           7.50       0          11.30      0          0

[STORAGE]
;;Name           Elev       MaxDepth   InitDepth  Shape      Curve/Params
;;-------------- ---------- ---------- ---------- ---------- ----------
C102-N-1         10.00      0          0          FUNCTIONAL 7030000.00 0          0
C102-S-1         10.00      0          0          FUNCTIONAL 41100000.00 0          0
L31-N            7.80       0          5.80       FUNCTIONAL 1000.00 0          0
C102-N-3         10.00      0          0          FUNCTIONAL 21200000.00 0          0
CC102-S-1        10.00      0          0          FUNCTIONAL 21200000.00 0          0
C102-N-2         10.00      0          0          FUNCTIONAL 43300000.00 0          0
C102-S-2         10.00      0          0          FUNCTIONAL 37400000.00 0          0
CC102-S-2        10.00      0          0          FUNCTIONAL 21300000.00 0          0
C102-S-3         10.00      0          0          FUNCTIONAL 35000000.00 0          0
CC102-S-3        10.00      0          0          FUNCTIONAL 28000000.00 0          0
C102-N-4         10.00      0          0          FUNCTIONAL 57400000.00 0          0
C102-S-4         15.00      0          0          FUNCTIONAL 56600000.00 0          0
C102-N-5         15.00      0          0          FUNCTIONAL 21700000.00 0          0
C102-S-5         15.00      0          0          FUNCTIONAL 41800000.00 0          0
CC102-N-1        15.00      0          0          FUNCTIONAL 15600000.00 0          0
CC102-S-4        15.00      0          0          FUNCTIONAL 25300000.00 0          0
C102-N-6         15.00      0          0          FUNCTIONAL 25500000.00 0          0
C102-S-6         15.00      0          0          FUNCTIONAL 22200000.00 0          0
C102-N-7         15.00      0          0          FUNCTIONAL 19800000.00 0          0
C102-N-8         15.00      0          0          FUNCTIONAL 7300000.00 0          0
C102-S-7         15.00      0          0          FUNCTIONAL 22500000.00 0          0
C102N-N-2        15.00      0          0          FUNCTIONAL 10900000.00 0          0
C102N-N-3        15.00      0          0          FUNCTIONAL 11600000.00 0          0
C102N-S-1        15.00      0          0          FUNCTIONAL 2990000.00 0          0
C102N-N-4        15.00      0          0          FUNCTIONAL 4480000.00 0          0
C102N-S-2        15.00      0          0          FUNCTIONAL 8670000.00 0          0
C102N-N-5        15.00      0          0          FUNCTIONAL 7910000.00 0          0
C102N-S-3        15.00      0          0          FUNCTIONAL 5210000.00 0          0
C102N-N-6        15.00      0          0          FUNCTIONAL 31600000.00 0          0
C102N-S-4        15.00      0          0          FUNCTIONAL 6900000.00 0          0
C102N-N-7        15.00      -3.00      0          FUNCTIONAL 9180000.00 0          0
C102-S-15        10.00      0          0.21       FUNCTIONAL 9810000.00 0          0
C102-S-14        10.00      0          0.15       FUNCTIONAL 27400000.00 0          0
C102-S-13        10.00      0          0          FUNCTIONAL 30500000.00 0          0
C102-S-8         15.00      0          0          FUNCTIONAL 9740000.00 0          0
C102-S-9         15.00      0          0          FUNCTIONAL 12700000.00 0          0
C102-S-10        15.00      0          0          FUNCTIONAL 12000000.00 0          0
C102-S-11        15.00      0          0          FUNCTIONAL 36900000.00 0          0
C102-S-12        10.00      0          0          FUNCTIONAL 18300000.00 0          0
C102-N-10        15.00      0          0          FUNCTIONAL 5900000.00 0          0
C102-N-11        15.00      0          0          FUNCTIONAL 2780000.00 0          0
C102-N-12        15.00      0          0          FUNCTIONAL 9070000.00 0          0
C102-N-9         15.00      0          0          FUNCTIONAL 8560000.00 0          0
C102-N-13        10.00      0          0          FUNCTIONAL 11500000.00 0          0
C102-N-14        10.00      0          0          FUNCTIONAL 63600000.00 0          0
C102-N-15        10.00      0          0          FUNCTIONAL 20000000.00 0          0
GOULDS-N-1       10.00      0          0          FUNCTIONAL 20200000.00 0          0
GOULDS-S-1       10.00      0          0          FUNCTIONAL 7500000.00 0          0
GOULDS-N-2       10.00      0          1.70       FUNCTIONAL 22700000.00 0          0
GOULDS-S-2       10.00      0          0          FUNCTIONAL 21400000.00 0          0
GOULDS-S-3       10.00      0          0.10       FUNCTIONAL 4720000.00 0          0

[CONDUITS]
;;Name           From             To               Length     Roughness  InOffset   OutOffset  InitFlow   MaxFlow
;;-------------- ---------------- ---------------- ---------- ---------- ---------- ---------- ---------- ----------
C102-C-1         L31-N            PR08             5667.00    0.0140     -3.90      -3.90      0          0
B1               PR08             B1-E             38.20      0          -2.70      -2.70      0          0
C102-C-2         B1-E             B2-N             4096.00    0          -4.10      -4.10      0          0
B2               B2-N             B2-S             38.20      0          -2.60      -2.60      0          0
C102-C-3         B2-S             B3-W             2565.00    0          -4.20      -4.20      0          0
B3               B3-W             B3-E             37.20      0          -2.20      -2.20      0          0
C102-C-4         B3-E             S-194-W          5333.00    0          -3.80      -3.80      0          0
S-194            S-194-W          S194-E           90.00      0.0140     -2.50      -2.50      0          0
C102-C-5         S194-E           PR07             2548.00    0          -4.90      -4.90      0          0
B4               B4-W             B4-E             28.00      0          -2.30      -2.30      0          0
C102-C-6         B4-E             B5-N             2484.00    0          -4.60      -4.60      0          0
B5               B5-N             B5-S             38.00      0          -2.70      -2.70      0          0
C102-C-7         B5-S             B6-W             5316.00    0          -3.10      -3.10      0          0
B6               B6-W             B6-E             38.10      0          -2.70      -2.70      0          0
C102-C-8         B6-E             B7-N             4152.00    0          -3.60      -3.60      0          0
B7               B7-N             B7-S             33.00      0.0140     -3.60      -3.60      0          0
C102-C-9         B7-S             B8-N             7609.00    0          -4.90      -4.90      0          0
B8               B8-N             B8-S             37.90      0          -4.60      -4.60      0          0
C102-C-10        B8-S             S-165-N          3407.00    0          -4.90      -4.90      0          0
S-165            S-165-N          S-165-S          80.00      0.0140     -2.50      -2.50      0          0
C102-C-11        S-165-S          B9-N             927.00     0          -4.90      -4.90      0          0
B9               B9-N             B9-S             12.30      0          -3.40      -3.40      0          0
C102-C-11A       B9-S             B10-N            1884.00    0          -7.80      -7.80      0          0
B10              B10-N            B10-S            38.10      0          -5.30      -5.30      0          0
C102-C-12        B10-S            B11-N            2915.00    0          -9.70      -9.70      0          0
B11              B11-N            B11-S            68.00      0          -7.20      -7.20      0          0
C102-C-13        B11-S            B12-W            3600.00    0          -9.70      -9.70      0          0
B12              B12-W            B12-E            40.20      0          -8.00      -8.00      0          0
C102-C-14        B12-E            C102-1           1903.00    0          -8.80      -8.80      0          0
C102-C-15        C102-1           B13-W            5777.00    0.0140     -11.00     -11.00     0          0
B13              B13-W            B13-E            64.20      0          -10.00     -10.00     0          0
C102-C-16        B13-E            PR03             3998.00    0          -10.90     -10.90     0          0
B14              PR03             B14-E            38.20      0          -8.70      -8.70      0          0
C102-C-17        B14-E            C102-2           5810.00    0          -22.50     -22.50     0          0
S21A-C           C102-2           S21A             50.00      0          -22.50     -22.50     0          0
C102N-C-6        B16-S            C102-1           4339.00    0          -7.40      -7.40      0          0
B16              PR04A            B16-S            38.20      0          -5.70      -5.70      0          0
C102N-C-5        B15-E            PR04A            4496.00    0          -6.40      -6.40      0          0
B15              B15-W            B15-E            38.20      0          -5.10      -5.10      0          0
C102N-C-4        S195-E           B15-W            2748.00    0          -7.50      -7.50      0          0
S-195            S195-W           S195-E           90.00      0.0140     -5.12      -5.39      0          0
C102N-C-3        U3-S             S195-W           3135.00    0          -7.60      -7.60      0          0
U3               U3-N             U3-S             110.00     0.0140     -4.14      -4.14      0          0
C102N-C-2        U2-S             U3-N             3972.00    0          -7.00      -7.00      0          0
U1               U1-N             U1-S             110.00     0.0140     -3.50      -3.50      0          0
C102N-C-1        U1-S             U2-N             1150.00    0          -8.70      -8.70      0          0
U2               U2-N             U2-S             84.00      0.0140     -3.50      -3.50      0          0
C102-C-5A        PR07             B4-W             8962.00    0          -3.40      -3.40      0          0
L31-E-7          L31E-4           L31E-5           3835.00    0.0140     -12.30     -12.30     0          0
L31-E-8          L31E-5           C102-2           5658.00    0          -7.90      -7.90      0          0
GOULDS-C-1       GLDS-1           GLDS-2           1642.00    0.0140     -1.60      -1.60      0          0
GOULDS-C-2       GLDS-2           U5-W             5842.00    0          -3.90      -3.90      0          0
U5               U5-W             U5-E             91.00      0.0140     -7.50      -7.50      0          0
GOULDS-C-3       U5-E             GLDS-3           1188.00    0          -6.40      -6.40      0          0
L31-E-10         GLDS-3           L31E-6           3020.00    0.0140     -9.40      -9.40      0          0
L31-E-9          L31E-6           C102-2           3684.00    0          -5.80      -5.80      0          0

[WEIRS]
;;Name           From             To               Type       CrestHt    Qcoeff     Gated    EndCon   EndCoeff   Surcharge
;;-------------- ---------------- ---------------- ---------- ---------- ---------- -------- -------- ---------- ----------
C102-W-N-1       C102-N-1         PR08             TRANSVERSE 7.80       1.840      NO       0        0          YES
C102-W-S-1       C102-S-1         PR08             TRANSVERSE 7.80       1.840      NO       0        0          YES
C102-W-N-3       C102-N-3         S-194-W          TRANSVERSE 8.50       1.840      NO       0        0          YES
WS-C1-1          CC102-S-1        C102-S-1         TRANSVERSE 7.50       1.840      NO       0        0          YES
C102-W-N-2       C102-N-2         B2-N             TRANSVERSE 8.30       1.840      NO       0        0          YES
WS-C2-2          CC102-S-2        C102-S-2         TRANSVERSE 8.00       1.840      NO       0        0          YES
C102-W-S-2       C102-S-2         B3-W             TRANSVERSE 8.80       1.840      NO       0        0          YES
WS-C3-3          CC102-S-3        C102-S-3         TRANSVERSE 8.00       1.840      NO       0        0          YES
C102-W-S-3       C102-S-3         S-194-W          TRANSVERSE 8.67       1.840      NO       0        0          YES
C102-W-N-4       C102-N-4         B4-W             TRANSVERSE 10.20      1.840      NO       0        0          YES
C102-W-S-4       C102-S-4         B4-W             TRANSVERSE 7.70       1.840      NO       0        0          YES
C102-W-N-5       C102-N-5         B6-W             TRANSVERSE 10.00      1.840      NO       0        0          YES
C102-W-S-5       C102-S-5         B6-W             TRANSVERSE 11.00      1.840      NO       0        0          YES
WSC-4-5          CC102-S-4        C102-S-5         TRANSVERSE 11.00      1.840      NO       0        0          YES
WNC1-5           CC102-N-1        C102-N-5         TRANSVERSE 11.00      1.840      NO       0        0          YES
C102-W-N-6       C102-N-6         B7-N             TRANSVERSE 9.30       1.840      NO       0        0          YES
C102-W-S-6       C102-S-6         B8-N             TRANSVERSE 12.00      1.840      NO       0        0          YES
C102-W-N-7       C102-N-7         B8-N             TRANSVERSE 10.00      1.840      NO       0        0          YES
C102-W-N-8       C102-N-8         B9-N             TRANSVERSE 10.00      1.840      NO       0        0          YES
C102-W-S-7       C102-S-7         B9-N             TRANSVERSE 11.00      1.840      NO       0        0          YES
C103NW-N-2       C102N-N-2        U2-N             TRANSVERSE 11.00      1.840      NO       0        0          YES
C102N-W-N5       C102N-N-3        U3-N             TRANSVERSE 11.10      1.840      NO       0        0          YES
C102NW-S-1       C102N-S-1        U3-N             TRANSVERSE 9.50       1.840      NO       0        0          YES
C102NW-N-4       C102N-N-4        S195-W           TRANSVERSE 11.00      1.840      NO       0        0          YES
C102NW-S-2       C102N-S-2        S195-W           TRANSVERSE 11.00      1.840      NO       0        0          YES
C102NW-N-5       C102N-N-5        B15-W            TRANSVERSE 11.50      1.840      NO       0        0          YES
C102NW-S-3       C102N-S-3        B15-W            TRANSVERSE 11.50      1.840      NO       0        0          YES
C102NW-N-6       C102N-N-6        PR04A            TRANSVERSE 10.30      1.840      NO       0        0          YES
C102NW-S-4       C102N-S-4        PR04A            TRANSVERSE 10.50      1.840      NO       0        0          YES
C102NW-N-7       C102N-N-7        C102-1           TRANSVERSE 6.80       1.840      NO       0        0          YES
C102N-S-15       S15-L31-4        L31E-4           TRANSVERSE 2.80       1.840      NO       0        0          YES
C102N-S-14       S14-L31-5        L31E-5           TRANSVERSE 2.80       1.840      NO       0        0          YES
C102W-S-13       C102N-S-13       S13-C102-2       TRANSVERSE 5.70       1.840      NO       0        0          YES
C102W-S-12       C102N-S-12       PR03             TRANSVERSE 7.00       1.840      NO       0        0          YES
C102W-S-11       C102N-S-11       B13-W            TRANSVERSE 5.30       1.840      NO       0        0          YES
C102W-S-10       C102N-S-10       C102-1           TRANSVERSE 8.00       1.840      NO       0        0          YES
C102W-S-8        C102-S-8         B11-N            TRANSVERSE 9.00       1.840      NO       0        0          YES
C102-W-S-9       C102-S-9         B12-W            TRANSVERSE 8.00       1.840      NO       0        0          YES
C102W-N-12       C102-N-12        C102-1           TRANSVERSE 8.00       1.840      NO       0        0          YES
C102W-N-11       C102-N-11        B12-W            TRANSVERSE 9.10       1.840      NO       0        0          YES
C102W-N-10       C102-N-10        B11-N            TRANSVERSE 8.70       1.840      NO       0        0          YES
C102-W-N-9       C102-N-9         B10-N            TRANSVERSE 9.50       1.840      NO       0        0          YES
C102W-N-15       N15C102-2        C102-2           TRANSVERSE 5.30       1.840      NO       0        0          YES
407.1            C102N-N-14       PR03             TRANSVERSE 7.00       1.840      NO       0        0          YES
C102W-N-13       C102N-N-13       B13-W            TRANSVERSE 5.30       1.840      NO       0        0          YES
GOULDS-WN1       GOULDS-N-1       GLDS-2           TRANSVERSE 6.78       1.840      NO       0        0          YES
GOULDS-S1        GOULDS-S-1       GLDS-2           TRANSVERSE 6.44       1.840      NO       0        0          YES
GOULDS-WN2       GOULDS-N-2       U5-W             TRANSVERSE 5.96       1.840      NO       0        0          YES
GOULDS-S2        GOULDS-S-2       U5-W             TRANSVERSE 0          1.840      NO       0        0          YES
GLDS-W-S-3       GOULDSN-S3       GLDS-3           TRANSVERSE 3.50       1.840      NO       0        0          YES
WCS-1-2          CC102-S-1        CC102-S-2        TRANSVERSE 8.00       1.840      NO       0        0          YES
WN-1-2           C102-N-1         C102-N-2         TRANSVERSE 7.20       1.840      NO       0        0          YES
WS-1-2           C102-S-2         C102-S-1         TRANSVERSE 8.00       1.840      NO       0        0          YES
WN-3-4           C102-N-3         C102-N-4         TRANSVERSE 9.00       1.840      NO       0        0          YES
WN-2-3           C102-N-2         C102-N-3         TRANSVERSE 8.00       1.840      NO       0        0          YES
WS-2-3           C102-S-2         C102-S-3         TRANSVERSE 8.20       1.840      NO       0        0          YES
WS-3-4           C102-S-3         C102-S-4         TRANSVERSE 9.00       1.840      NO       0        0          YES
WCS-2-3          CC102-S-2        CC102-S-3        TRANSVERSE 8.00       1.840      NO       0        0          YES
WN-5-6           C102-N-5         C102-N-6         TRANSVERSE 10.50      1.840      NO       0        0          YES
WS-6-5           C102-S-6         C102-S-5         TRANSVERSE 12.50      1.840      NO       0        0          YES
WSC-6-4          C102-S-6         CC102-S-4        TRANSVERSE 13.50      1.840      NO       0        0          YES
WN-7-6           C102-N-7         C102-N-6         TRANSVERSE 10.50      1.840      NO       0        0          YES
WS-6-7           C102-S-6         C102-S-7         TRANSVERSE 12.50      1.840      NO       0        0          YES
WN-7-8           C102-N-7         C102-N-8         TRANSVERSE 10.50      1.840      NO       0        0          YES
WN-9-10          C102-N-9         C102-N-10        TRANSVERSE 9.50       1.840      NO       0        0          YES
WS-8-9           C102-S-8         C102-S-9         TRANSVERSE 8.70       1.840      NO       0        0          YES
WN-10-11         C102-N-10        C102-N-11        TRANSVERSE 8.70       1.840      NO       0        0          YES
WN-10-12         C102-N-10        C102-N-12        TRANSVERSE 9.00       1.840      NO       0        0          YES
WS-10-11         C102-S-10        C102-S-11        TRANSVERSE 7.50       1.840      NO       0        0          YES
WN-6-N1          C102-N-6         U1-N             TRANSVERSE 8.50       1.840      NO       0        0          YES
WS-7-N-1         C102-N-7         C102N-S-1        TRANSVERSE 10.50      1.840      NO       0        0          YES
WNN-2-3          C102N-N-2        C102N-N-3        TRANSVERSE 10.50      1.840      NO       0        0          YES
WNN-3-4          C102N-N-3        C102N-N-4        TRANSVERSE 10.50      1.840      NO       0        0          YES
WNS-2-1          C102N-S-2        C102N-S-1        TRANSVERSE 10.50      1.840      NO       0        0          YES
WN-8-NS-2        C102-N-8         C102N-S-2        TRANSVERSE 10.50      1.840      NO       0        0          YES
WN-9-NS-3        C102-N-9         C102N-S-3        TRANSVERSE 10.00      1.840      NO       0        0          YES
WNN-5-6          C102N-N-5        C102N-N-6        TRANSVERSE 9.50       1.840      NO       0        0          YES
WNS-3-4          C102N-S-3        C102N-S-4        TRANSVERSE 9.50       1.840      NO       0        0          YES
WN-9-NS-4        C102-N-9         C102N-S-4        TRANSVERSE 9.50       1.840      NO       0        0          YES
WNS-4-N-12       C102N-S-4        C102-N-12        TRANSVERSE 9.50       1.840      NO       0        0          YES
WNN-6-7          C102N-N-6        C102N-N-7        TRANSVERSE 7.50       1.840      NO       0        0          YES
WN-13-14         WN-13-14         C102-N-14        TRANSVERSE 5.00       1.840      NO       0        0          YES
WS-11-12         NS-11-12         C102-S-12        TRANSVERSE 4.10       1.840      NO       0        0          YES
WS-12-13         NS-12-13         C102-S-13        TRANSVERSE 3.70       1.840      NO       0        0          YES
WN-14-15         NN-14-15         C102-N-15        TRANSVERSE 3.20       1.840      NO       0        0          YES
WS-15-14         NS-15-14         C102-S-14        TRANSVERSE 2.00       1.840      NO       0        0          YES
WS-14-13         NS-14-13         C102-S-13        TRANSVERSE 2.00       1.840      NO       0        0          YES
WNN-7-GS-1       C102N-N-7        GOULDS-S-1       TRANSVERSE 5.50       1.840      NO       0        0          YES
WN-14-GS-2       NN-14-GS-2       GOULDS-S-2       TRANSVERSE 3.00       1.840      NO       0        0          YES
WN-15-GS-2       NN-15-GS-2       GOULDS-S-2       TRANSVERSE 2.00       1.840      NO       0        0          YES
GLDSS2L316       GOULDS-S-2       L31E-6           TRANSVERSE 3.00       1.840      NO       0        0          YES

[XSECTIONS]
;;Link           Shape        Geom1      Geom2      Geom3      Geom4      Barrels
;;-------------- ------------ ---------- ---------- ---------- ---------- ----------
C102-C-1         IRREGULAR    0.16       0          0          0          1
B1               IRREGULAR    0.16       0          0          0          1
C102-C-2         IRREGULAR    0.16       0          0          0          1
B2               IRREGULAR    0.16       0          0          0          1
C102-C-3         IRREGULAR    0.16       0          0          0          1
B3               IRREGULAR    0.16       0          0          0          1
C102-C-4         IRREGULAR    0.16       0          0          0          1
S-194            CIRCULAR     7.00       0          0          0          1
C102-C-5         IRREGULAR    0.16       0          0          0          1
B4               IRREGULAR    0.16       0          0          0          1
C102-C-6         IRREGULAR    0.16       0          0          0          1
B5               IRREGULAR    0.16       0          0          0          1
C102-C-7         IRREGULAR    0.16       0          0          0          1
B6               IRREGULAR    0.16       0          0          0          1
C102-C-8         IRREGULAR    0.16       0          0          0          1
B7               IRREGULAR    0.16       0          0          0          1
C102-C-9         IRREGULAR    0.16       0          0          0          1
B8               IRREGULAR    0.16       0          0          0          1
C102-C-10        IRREGULAR    0.16       0          0          0          1
S-165            TRAPEZOIDAL  11.00      12.80      0          0          1
C102-C-11        IRREGULAR    0.16       0          0          0          1
B9               IRREGULAR    0.16       0          0          0          1
C102-C-11A       IRREGULAR    0.16       0          0          0          1
B10              IRREGULAR    0.16       0          0          0          1
C102-C-12        IRREGULAR    0.16       0          0          0          1
B11              IRREGULAR    0.16       0          0          0          1
C102-C-13        IRREGULAR    0.16       0          0          0          1
B12              IRREGULAR    0.16       0          0          0          1
C102-C-14        IRREGULAR    0.16       0          0          0          1
C102-C-15        IRREGULAR    0.16       0          0          0          1
B13              IRREGULAR    0.16       0          0          0          1
C102-C-16        IRREGULAR    0.16       0          0          0          1
B14              IRREGULAR    0.16       0          0          0          1
C102-C-17        IRREGULAR    0.16       0          0          0          1
S21A-C           IRREGULAR    0.16       0          0          0          1
C102N-C-6        IRREGULAR    0.16       0          0          0          1
B16              IRREGULAR    0.16       0          0          0          1
C102N-C-5        IRREGULAR    0.16       0          0          0          1
B15              IRREGULAR    0.16       0          0          0          1
C102N-C-4        IRREGULAR    0.16       0          0          0          1
S-195            CIRCULAR     6.00       0          0          0          1
C102N-C-3        IRREGULAR    0.16       0          0          0          1
U3               HORSESHOE    10.50      0          0          0          1
C102N-C-2        IRREGULAR    0.16       0          0          0          1
U1               HORSESHOE    8.40       0          0          0          1
C102N-C-1        IRREGULAR    0.16       0          0          0          1
U2               HORSESHOE    8.40       0          0          0          1
C102-C-5A        IRREGULAR    0.16       0          0          0          1
L31-E-7          IRREGULAR    0.16       0          0          0          1
L31-E-8          IRREGULAR    0.16       0          0          0          1
GOULDS-C-1       IRREGULAR    0.16       0          0          0          1