;; SWMM5 .inp converted from XPSWMM .xp file
;; Generated by XPSWMM Card Reader
;; Source format: XP_CARD | Original title: OVERLAND FLOW NORTH OF THE CHINA BASIN CHANNEL

[TITLE]
;;Project Title/Notes
OVERLAND FLOW NORTH OF THE CHINA BASIN CHANNEL

[OPTIONS]
FLOW_UNITS           CFS
INFILTRATION         HORTON
FLOW_ROUTING         DYNWAVE
LINK_OFFSETS         DEPTH
MIN_SLOPE            0.0
ALLOW_PONDING        NO
SKIP_STEADY_STATE    NO
ROUTING_STEP         00:00:05
VARIABLE_STEP        0.75
INERTIAL_DAMPING     NONE
NORMAL_FLOW_LIMITED  BOTH
MAX_TRIALS           30

[JUNCTIONS]
;;Name           Elev       MaxDepth   InitDepth  SurDepth   Aponded
;;-------------- ---------- ---------- ---------- ---------- ----------
110              21.50      0          0          0          0
100              15.50      0          0          0          0
120              20.70      0          0          0          0
130              14.00      0          0          0          0
150              9.70       0          0          0          0
160              10.00      0          0          0          0
170              11.50      0          0          0          0
180              10.00      0          0          0          0
200              9.30       0          0          0          0
210              9.70       0          0          0          0
220              9.50       0          0          0          0
230              10.00      0          0          0          0
300              9.30       0          0          0          0
310              9.20       0          0          0          0
330              8.00       0          0          0          0
350              6.60       0          0.90       0          0
370              10.00      0          0          0          0
450              9.50       0          0          0          0
460              9.20       0          0          0          0
480              7.60       0          0          0          0
510              7.10       0          0.40       0          0
560              18.50      0          0          0          0
570              16.30      0          0          0          0
580              12.60      0          0          0          0
590              11.00      0          0          0          0
600              9.00       0          0          0          0
610              9.10       0          0          0          0
420              6.00       0          1.50       0          0
500              9.60       0          0          0          0
470              8.20       0          0          0          0
380              6.00       0          1.50       0          0
320              9.20       0          0          0          0
190              9.65       0          0          0          0
520              9.50       0          0          0          0
490              8.60       0          0          0          0
410              6.00       0          1.50       0          0
340              6.30       0          0.20       0          0
440              6.50       0          1.00       0          0
390              6.50       0          1.00       0          0
430              6.00       0          1.50       0          0
240              9.50       0          0          0          0

[STORAGE]
;;Name           Elev       MaxDepth   InitDepth  Shape      Curve/Params
;;-------------- ---------- ---------- ---------- ---------- ----------
360              5.00       0          2.50       FUNCTIONAL 0 0          0

[CONDUITS]
;;Name           From             To               Length     Roughness  InOffset   OutOffset  InitFlow   MaxFlow
;;-------------- ---------------- ---------------- ---------- ---------- ---------- ---------- ---------- ----------
1100             110              100              633.00     0.0140     11.50      5.50       0          0
1110             110              120              633.00     0.0140     11.50      10.70      0          0
1120             120              130              350.00     0.0140     10.70      4.00       0          0
1130             130              150              320.00     0.0140     4.00       -0.30      0          0
1140             150              160              320.00     0.0140     -0.30      0          0          0
1200             170              180              633.00     0.0140     1.50       0          0          0
1230             200              210              350.00     0.0140     -0.70      -0.30      0          0
1240             220              210              320.00     0.0140     -0.50      -0.30      0          0
1250             230              220              320.00     0.0140     0          -0.50      0          0
1410             300              310              633.00     0.0140     -0.70      -0.80      0          0
1460             350              360              320.00     0.0140     -3.40      -4.20      0          0
1470             370              360              320.00     0.0140     0          -4.20      0          0
1820             560              570              633.00     0.0140     8.50       6.30       0          0
1830             570              580              633.00     0.0140     6.30       2.60       0          0
1840             580              590              350.00     0.0140     2.60       1.00       0          0
1850             590              600              320.00     0.0140     1.00       0          0          0
1860             600              610              320.00     0.0140     0          -0.90      0          0
1150             100              170              905.00     0.0140     5.50       1.50       0          0
1260             170              300              905.00     0.0140     1.50       -0.70      0          0
1480             300              450              905.00     0.0140     -0.70      -0.50      0          0
1720             560              450              905.00     0.0140     8.50       -0.50      0          0
1160             110              180              905.00     0.0140     11.50      0          0          0
1270             180              310              905.00     0.0140     0          -0.80      0          0
1490             310              460              905.00     0.0140     -0.80      -0.80      0          0
1730             570              460              905.00     0.0140     6.30       -0.80      0          0
1170             120              200              905.00     0.0140     10.70      -0.70      0          0
1590             480              420              218.00     0.0140     -2.40      -4.00      0          0
1180             130              210              905.00     0.0140     4.00       -0.30      0          0
1190             150              220              905.00     0.0140     -0.30      -0.50      0          0
1810             600              510              905.00     0.0140     0          -2.90      0          0
1660             450              460              633.00     0.0140     -0.50      -0.80      0          0
1650             510              360              150.00     0.0140     -2.90      -2.40      0          0
1670             480              470              316.00     0.0140     -2.40      -1.80      0          0
1550             470              380              260.00     0.0140     -1.80      -4.00      0          0
1500             380              320              644.00     0.0140     -4.00      -0.80      0          0
1430             320              330              316.00     0.0140     -0.80      -2.00      0          0
1420             310              320              316.00     0.0140     -0.80      -0.80      0          0
1280             320              190              905.00     0.0140     -0.80      -0.35      0          0
1220             190              200              316.00     0.0140     -0.35      -0.70      0          0
1210             180              190              316.00     0.0140     0          -0.35      0          0
1700             500              510              320.00     0.0140     -0.40      -2.90      0          0
1710             510              520              320.00     0.0140     -2.90      -0.50      0          0
1740             580              480              905.00     0.0140     2.60       -2.40      0          0
1760             590              500              905.00     0.0140     1.00       -0.40      0          0
1680             480              490              175.00     0.0140     -2.40      -1.40      0          0
1690             490              500              175.00     0.0140     -1.40      -0.40      0          0
1640             500              410              452.00     0.0140     -0.40      -4.00      0          0
1530             410              350              453.00     0.0140     -4.00      -3.40      0          0
1510             420              330              687.00     0.0140     -4.00      -2.00      0          0
1440             330              340              175.00     0.0400     -2.00      -2.70      0          0
1450             340              350              175.00     0.0400     -2.70      -3.40      0          0
1290             330              200              452.00     0.0140     -2.00      0          0          0
1310             350              210              452.00     0.0140     -3.40      -0.30      0          0
1600             490              440              218.00     0.0400     -1.40      -3.50      0          0
1560             440              390              234.00     0.0400     -3.50      -3.50      0          0
1520             390              340              453.00     0.0400     -3.50      -2.70      0          0
1540             390              410              100.00     0.0400     -3.50      -3.50      0          0
1580             430              440              100.00     0.0400     -4.00      -3.50      0          0
1300             340              240              900.00     0.0400     -2.70      -0.50      0          0

[WEIRS]
;;Name           From             To               Type       CrestHt    Qcoeff     Gated    EndCon   EndCoeff   Surcharge
;;-------------- ---------------- ---------------- ---------- ---------- ---------- -------- -------- ---------- ----------
1570             420              430              TRANSVERSE -3.20      1.840      NO       0        0          YES

[XSECTIONS]
;;Link           Shape        Geom1      Geom2      Geom3      Geom4      Barrels
;;-------------- ------------ ---------- ---------- ---------- ---------- ----------
1100             TRAPEZOIDAL  5.00       1.00       0          0          1
1110             TRAPEZOIDAL  5.00       1.00       0          0          1
1120             TRAPEZOIDAL  5.00       1.00       0          0          1
1130             TRAPEZOIDAL  5.00       1.00       0          0          1
1140             TRAPEZOIDAL  5.00       1.00       0          0          1
1200             TRAPEZOIDAL  5.00       1.00       0          0          1
1230             TRAPEZOIDAL  5.00       1.00       0          0          1
1240             TRAPEZOIDAL  5.00       1.00       0          0          1
1250             TRAPEZOIDAL  5.00       1.00       0          0          1
1410             TRAPEZOIDAL  5.00       1.00       0          0          1
1460             TRAPEZOIDAL  5.00       1.00       0          0          1
1470             TRAPEZOIDAL  5.00       1.00       0          0          1
1820             TRAPEZOIDAL  5.00       1.00       0          0          1
1830             TRAPEZOIDAL  5.00       1.00       0          0          1
1840             TRAPEZOIDAL  5.00       1.00       0          0          1
1850             TRAPEZOIDAL  5.00       1.00       0          0          1
1860             TRAPEZOIDAL  5.00       1.00       0          0          1
1150             TRAPEZOIDAL  5.00       1.00       0          0          1
1260             TRAPEZOIDAL  5.00       1.00       0          0          1
1480             TRAPEZOIDAL  5.00       1.00       0          0          1
1720             TRAPEZOIDAL  5.00       1.00       0          0          1
1160             TRAPEZOIDAL  5.00       1.00       0          0          1
1270             TRAPEZOIDAL  5.00       1.00       0          0          1
1490             TRAPEZOIDAL  5.00       1.00       0          0          1
1730             TRAPEZOIDAL  5.00       1.00       0          0          1
1170             TRAPEZOIDAL  5.00       1.00       0          0          1
1590             TRAPEZOIDAL  5.00       1.00       0          0          1
1180             TRAPEZOIDAL  5.00       1.00       0          0          1
1190             TRAPEZOIDAL  5.00       1.00       0          0          1
1810             TRAPEZOIDAL  5.00       1.00       0          0          1
1660             TRAPEZOIDAL  5.00       1.00       0          0          1
1650             TRAPEZOIDAL  5.00       1.00       0          0          1
1670             TRAPEZOIDAL  5.00       1.00       0          0          1
1550             TRAPEZOIDAL  5.00       1.00       0          0          1
1500             TRAPEZOIDAL  5.00       1.00       0          0          1
1430             TRAPEZOIDAL  5.00       1.00       0          0          1
1420             TRAPEZOIDAL  5.00       1.00       0          0          1
1280             TRAPEZOIDAL  5.00       1.00       0          0          1
1220             TRAPEZOIDAL  5.00       1.00       0          0          1
1210             TRAPEZOIDAL  5.00       1.00       0          0          1
1700             TRAPEZOIDAL  5.00       1.00       0          0          1
1710             TRAPEZOIDAL  5.00       1.00       0          0          1
1740             TRAPEZOIDAL  5.00       1.00       0          0          1
1760             TRAPEZOIDAL  5.00       1.00       0          0          1
1680             TRAPEZOIDAL  5.00       1.00       0          0          1
1690             TRAPEZOIDAL  5.00       1.00       0          0          1
1640             TRAPEZOIDAL  5.00       1.00       0          0          1
1530             TRAPEZOIDAL  5.00       1.00       0          0          1
1510             TRAPEZOIDAL  5.00       1.00       0          0          1
1440             TRAPEZOIDAL  5.00       1.00       0          0          1
1450             TRAPEZOIDAL  5.00       1.00       0          0          1
1290             TRAPEZOIDAL  5.00       1.00       0          0          1
1310             TRAPEZOIDAL  5.00       1.00       0          0          1
1600             RECT_CLOSED  5.00       150.00     0          0          1
1560             RECT_CLOSED  5.00       150.00     0          0          1
1520             RECT_CLOSED  5.00       150.00     0          0          1
1540             RECT_CLOSED  5.00       40.00      0          0          1
1580             RECT_CLOSED  5.00       40.00      0          0          1
1300             RECT_CLOSED  5.00       150.00     0          0          1
1570             RECT_OPEN    0          40.00      0          0          

[LOSSES]
;;Link           Inlet      Outlet     Average    Flap Gate
;;-------------- ---------- ---------- ---------- ----------
1100             0          0          0          NO
1110             0          0          0          NO
1120             0          0          0          NO
1130             0          0          0          NO
1140             0          0          0          NO
1200             0          0          0          NO
1230             0          0          0          NO
1240             0          0          0          NO
1250             0          0          0          NO
1410             0          0          0          NO
1460             0          0          0          NO
1470             0          0          0          NO
1820             0          0          0          NO
1830             0          0          0          NO
1840             0          0          0          NO
1850             0          0          0          NO
1860             0          0          0          NO
1150             0          0          0          NO
1260             0          0          0          NO
1480             0          0          0          NO
1720             0          0          0          NO
1160             0          0          0          NO
1270             0          0          0          NO
1490             0          0          0          NO
1730             0          0          0          NO
1170             0          0          0          NO
1590             0          0          0          NO
1180             0          0          0          NO
1190             0          0          0          NO
1810             0          0          0          NO
1660             0          0          0          NO
1650             0          0          0          NO
1670             0          0          0          NO
1550             0          0          0          NO
1500             0          0          0          NO
1430             0          0          0          NO
1420             0          0          0          NO
1280             0          0          0          NO
1220             0          0          0          NO
1210             0          0          0          NO
1700             0          0          0          NO
1710             0          0          0          NO
1740             0          0          0          NO
1760             0          0          0          NO
1680             0          0          0          NO
1690             0          0          0          NO
1640             0          0          0          NO
1530             0          0          0          NO
1510             0          0          0          NO
1440             0          0          0          NO
1450             0          0          0          NO
1290             0          0          0          NO
1310             0          0          0          NO
1600             0          0          0          NO
1560             0          0          0          NO
1520             0          0          0          NO
1540             0          0          0          NO
1580             0          0          0          NO
1300             0          0          0          NO

[COORDINATES]
;;Node           X-Coord            Y-Coord
;;-------------- ------------------ ------------------
110              73.53              218.10            
100              52.12              218.24            
120              95.98              218.09            
130              108.59             218.10            
150              118.39             218.52            
160              129.66             216.76            
170              52.04              190.61            
180              74.41              190.44            
200              96.12              191.05            
210              108.57             190.97            
220              119.27             191.34            
230              129.53             191.31            
300              51.82              163.25            
310              73.88              163.24            
330              96.14              163.20            
350              108.49             163.16            
360              119.36             163.07            
370              129.75             163.08            
450              51.65              134.39            
460              73.43              134.18            
480              96.09              134.13            
510              118.55             132.83            
560              51.59              106.48            
570              73.03              106.47            
580              95.64              107.22            
590              108.15             107.93            
600              118.92             107.12            
610              130.41             107.09            
420              96.06              142.17            
500              108.17             133.03            
470              84.80              134.24            
380              84.80              147.44            
320              84.80              163.03            
190              84.80              190.31            
520              129.62             132.88            
490              101.59             133.51            
410              108.30             150.21            
340              101.81             163.20            
440              101.68             142.17            
390              101.68             150.09            
430              97.86              142.17            
240              101.81             187.68            

[MAP]
DIMENSIONS 51.59 106.47 130.41 218.52
Units      None

[REPORT]
INPUT            YES
SUBCATCHMENTS    ALL
NODES            ALL
LINKS            ALL



