;; SWMM5 .inp converted from XPSWMM .xp file
;; Generated by XPSWMM Card Reader
;; Source format: XP_CARD | Original title: (none)

[TITLE]
;;Project Title/Notes
Converted from XPSWMM .xp file

[OPTIONS]
FLOW_UNITS           CFS
INFILTRATION         HORTON
FLOW_ROUTING         DYNWAVE
LINK_OFFSETS         DEPTH
MIN_SLOPE            0.0
ALLOW_PONDING        NO
SKIP_STEADY_STATE    NO
ROUTING_STEP         00:00:30
VARIABLE_STEP        0.75
INERTIAL_DAMPING     PARTIAL
NORMAL_FLOW_LIMITED  BOTH
MAX_TRIALS           50
HEAD_TOLERANCE       0.00033

[JUNCTIONS]
;;Name           Elev       MaxDepth   InitDepth  SurDepth   Aponded
;;-------------- ---------- ---------- ---------- ---------- ----------
0037C00330       747.02     0          0          0          0
0037C00320       747.12     0          0          0          0
0037C00290       745.32     0          0          0          0
0037C02215       746.62     0          0          0          0
0037C02225       746.62     0          0          0          0
0037C02150       749.74     0          0          0          0
0037C00255       738.12     0          0          0          0
0037C00245       741.32     0          0          0          0
0037C00225       735.22     0          0          0          0
0037C01125       735.03     0          0          0          0
0037C00220       734.72     0          0          0          0
0037C01130       734.96     0          0          0          0
0037C01150       738.82     0          0          0          0
0037C01160       742.42     0          0          0          0
0037C01165       742.42     0          0          0          0
0037C01225       733.22     0          0          0          0
0037C01645       742.52     0          0          0          0
0037C01320       733.92     0          0          0          0
0037C01330       738.52     0          0          0          0
0037C01245       741.82     0          0          0          0
0037C01665       732.82     0          0          0          0
0037C01670       743.12     0          0          0          0
0037C00940       734.52     0          0          0          0
0037C00950       736.32     0          0          0          0
0037C00965       730.22     0          0          0          0
0037C00205       727.98     0          0          0          0
0037C00185       710.71     0          0          0          0
0037C00075       714.32     0          0          0          0
0037C00470       711.32     0          0          0          0
0037C00475       711.32     0          0          0          0
0037C00485       713.70     0          0          0          0
0037C00490       712.82     0          0          0          0
0037C00495       714.32     0          0          0          0
0037C00500       716.82     0          0          0          0
0037C00505       717.82     0          0          0          0
CSO              712.55     0          0          0          0
Throttle         712.37     0          0          0          0
Outfall          712.55     0          0          0          0
0037C03265       746.75     0          0          0          0
0037C03300       749.98     0          0          0          0
0037C03295       748.22     0          0          0          0
0037C02425       747.77     0          0          0          0
0037C02435       746.82     0          0          0          0
0037C02540       748.21     0          0          0          0
0037C02550       748.82     0          0          0          0
0037C02520       748.71     0          0          0          0
0037C02560       745.52     0          0          0          0
0037C02575       744.32     0          0          0          0
003703310        747.02     0          0          0          0
0037C03520       747.14     0          0          0          0
0037C03350       747.54     0          0          0          0
0037C03335       746.72     0          0          0          0
0037C03370       745.67     0          0          0          0
0037C03525       745.81     0          0          0          0
0037C03530       747.32     0          0          0          0
0037C03540       746.51     0          0          0          0
0037C03380       746.02     0          0          0          0
0037C035         745.58     0          0          0          0
0037C03560       745.35     0          0          0          0
0037C03385       746.32     0          0          0          0
0037C03390       744.52     0          0          0          0
0037C03575       747.32     0          0          0          0
0037C03590       746.42     0          0          0          0
0037C03625       747.97     0          0          0          0
0037C03710       745.72     0          0          0          0
0037C03645       746.52     0          0          0          0
0037C03690       742.82     0          0          0          0
0037C03655       745.52     0          0          0          0
0037C03420       744.32     0          0          0          0
0037C02600       746.12     0          0          0          0
0037C02590       747.69     0          0          0          0
0037C02595       746.12     0          0          0          0
0037C02585       745.42     0          0          0          0
0037C03600       746.52     0          0          0          0
0037C03345       745.90     0          0          0          0
0037C03660       743.55     0          0          0          0
0037C03695       742.82     0          0          0          0
0037C00335       747.82     0          0          0          0
0037C04145       747.82     0          0          0          0
0037C04150       747.82     0          0          0          0
0037C04185       747.32     0          0          0          0
0037C04190       747.32     0          0          0          0
0037C04195       756.48     0          0          0          0
0037C04200       754.80     0          0          0          0
0037C02275       746.57     0          0          0          0
0037C02250       746.52     0          0          0          0
0037C02300       749.24     0          0          0          0
0037C02295       746.24     0          0          0          0
0037C02235       743.29     0          0          0          0
0028C01055       745.72     0          0          0          0
0028C00155       746.11     0          0          0          0
0028C01050       746.32     0          0          0          0
0028C01030       747.82     0          0          0          0
0028C00837       746.22     0          0          0          0
0037C00285       746.82     0          0          0          0
0037C00280       745.82     0          0          0          0
0037C00275       744.82     0          0          0          0
0037C02080       747.02     0          0          0          0
0037C02130       749.52     0          0          0          0
0037C02110       747.82     0          0          0          0
0037C02070       748.82     0          0          0          0
0037C02145       750.82     0          0          0          0
0037C02165       747.02     0          0          0          0
0037C02195       749.32     0          0          0          0
0037C02185       747.07     0          0          0          0
0037C02160       748.22     0          0          0          0
0037C00305       746.00     0          0          0          0
0037C02385       746.85     0          0          0          0
0028C00820       746.82     0          0          0          0
0037C00970       734.82     0          0          0          0
0037C00980       742.92     0          0          0          0
0037C00985       744.72     0          0          0          0
0037C01080       735.32     0          0          0          0
0037C01095       741.32     0          0          0          0
0037C01100       744.32     0          0          0          0
0037C00945       733.81     0          0          0          0
0037C01060       739.62     0          0          0          0
0037C01075       748.62     0          0          0          0
0037C01065       745.42     0          0          0          0
0037C01030       737.82     0          0          0          0
0037C01035       743.32     0          0          0          0
0037C01045       742.77     0          0          0          0
0037C01015       738.12     0          0          0          0
0037C01005       735.62     0          0          0          0
0037C00240       739.87     0          0          0          0
0037C01930       737.97     0          0          0          0
0037C01935       740.12     0          0          0          0
0037C01940       741.32     0          0          0          0
0037C00015       712.55     0          0          0          0
0220X00135       750.00     0          0          0          0
0220X00110       748.70     0          0          0          0
0220X00070       749.30     0          0          0          0
0220X00060       745.50     0          0          0          0
0220X00040       742.50     0          0          0          0
0220X00045       744.70     0          0          0          0
judayout         734.02     0          0          0          0
judayout2        734.00     0          0          0          0
creekwood1       740.15     0          0          0          0
0200X00470       741.60     0          0          0          0
0200X00455       744.63     0          0          0          0
0200X00435       740.83     0          0          0          0
0200X00420       739.60     0          0          0          0
0200X00405       742.30     0          0          0          0
0200X00350       742.82     0          0          0          0
0210X00525       743.30     0          0          0          0
0200X00645       743.10     0          0          0          0
0200X00585       746.60     0          0          0          0
0200X00530       744.00     0          0          0          0
0200X00640       741.60     0          0          0          0
0200X0785        742.55     0          0          0          0
0200X00780       741.97     0          0          0          0
0200X00745       740.37     0          0          0          0
0200X00680       738.32     0          0          0          0
0200X00295       743.12     0          0          0          0
0200X00280       737.32     0          0          0          0
0200X00235       730.96     0          0          0          0
0200X00175       723.66     0          0          0          0
0200X00170       723.02     0          0          0          0
0200X00157       720.54     0          0          0          0
0200X00155       717.52     0          0          0          0
0200X00030       714.13     0          0          0          0
0200X00035       728.06     0          0          0          0
0200X00040       732.67     0          0          0          0
0200X00050       736.69     0          0          0          0
0200X00180       732.67     0          0          0          0
0200X00195       733.49     0          0          0          0
0200X00205       734.82     0          0          0          0
0200X00025       715.88     0          0          0          0
0200X00055       714.82     0          0          0          0
0200X00070       715.61     0          0          0          0
0200X00080       713.97     0          0          0          0
0200X00085       713.96     0          0          0          0
0200X00090       713.96     0          0          0          0
0200X00020       716.63     0          0          0          0
0200X00012       712.82     0          0          0          0
0200X00010       698.48     0          0          0          0
sjrout           693.32     0          0          0          0
0037C02445       745.82     0          0          0          0
0037C02490       739.07     0          0          0          0
0037C02450       743.82     0          0          0          0
0037C00340       747.62     0          0          0          0
0037C00355       747.62     0          0          0          0
0037C02465       740.82     0          0          0          0
RIVER            712.55     0          0          0          0
0037C00170       713.62     0          0          0          0
intercptra       705.50     0          0          0          0
0037C03595       746.77     0          0          0          0
0037C03340       746.45     0          0          0          0
0037C02440       746.32     0          0          0          0
intercptrb       705.50     0          0          0          0
424              705.50     0          0          0          0
426              712.55     0          0          0          0
429              745.82     0          0          0          0
434              746.32     0          0          0          0

[STORAGE]
;;Name           Elev       MaxDepth   InitDepth  Shape      Curve/Params
;;-------------- ---------- ---------- ---------- ---------- ----------
33ponbas         742.82     0          0          FUNCTIONAL 0 0          0
crkwdbas         738.00     0          0          FUNCTIONAL 0 0          0
36basin          730.00     0          0          FUNCTIONAL 0 0          0
pond             738.32     0          0          FUNCTIONAL 0 0          0
Boehm            745.00     0          0          FUNCTIONAL 0 0          0
MPCC             745.00     0          0          FUNCTIONAL 0 0          0

[CONDUITS]
;;Name           From             To               Length     Roughness  InOffset   OutOffset  InitFlow   MaxFlow
;;-------------- ---------------- ---------------- ---------- ---------- ---------- ---------- ---------- ----------
5                0037C00330       0037C00320       396.00     0.0130     735.02     734.44     0          0
14               0037C02225       0037C02215       397.00     0.0130     735.30     734.87     0          0
17               0037C02215       0037C02150       895.30     0.0130     734.87     733.78     0          0
22               0037C00255       0037C00245       781.00     0.0130     724.12     721.00     0          0
27               0037C01125       0037C00225       700.00     0.0130     713.77     712.88     0          0
28               0037C00225       0037C00220       480.00     0.0130     712.57     711.62     0          0
33               0037C01165       0037C01160       335.00     0.0130     725.95     724.83     0          0
34               0037C01160       0037C01150       727.00     0.0130     724.43     722.97     0          0
35               0037C01150       0037C01130       1750.00    0.0130     722.57     716.82     0          0
36               0037C01130       0037C01125       195.00     0.0130     714.16     713.77     0          0
38               0037C01225       0037C01130       45.00      0.0130     719.22     719.04     0          0
40               0037C01645       0037C01160       468.00     0.0130     726.43     724.83     0          0
44               0037C01245       0037C01225       1012.00    0.0130     731.41     719.22     0          0
45               0037C01330       0037C01320       632.00     0.0130     725.32     723.15     0          0
46               0037C01320       0037C01225       1042.00    0.0130     723.15     720.02     0          0
48               0037C01665       0037C01645       1478.00    0.0130     729.52     727.03     0          0
50               0037C01670       0037C01665       200.00     0.0130     729.82     729.52     0          0
52               0037C00940       0037C00220       180.00     0.0130     713.52     713.12     0          0
55               0037C00965       0037C00950       645.00     0.0130     717.52     715.72     0          0
60               0037C00220       0037C00205       555.00     0.0130     711.62     709.80     0          0
61               0037C00205       0037C00185       1440.00    0.0130     709.80     694.12     0          0
64               0037C00470       0037C00185       1315.00    0.0130     696.22     694.12     0          0
69               0037C00495       0037C00490       415.00     0.0130     701.08     700.32     0          0
70               0037C00490       0037C00485       415.00     0.0130     700.17     699.29     0          0
71               0037C00485       0037C00475       645.00     0.0130     699.07     697.82     0          0
72               0037C00475       0037C00470       325.00     0.0130     697.32     696.82     0          0
75               0037C00505       0037C00500       335.00     0.0130     704.12     703.12     0          0
76               0037C00500       0037C00495       335.00     0.0130     702.82     701.57     0          0
78               0037C00075       CSO              260.00     0.0130     689.92     689.22     0          0
88               0037C03300       0037C03265       327.00     0.0130     738.66     737.35     0          0
89               0037C03265       0037C00320       766.00     0.0130     737.10     734.90     0          0
90               0037C03295       0037C03265       1240.00    0.0130     740.69     737.15     0          0
94               0037C02435       0037C02425       800.00     0.0130     737.42     736.70     0          0
95               0037C02425       0037C00320       1660.00    0.0130     736.70     735.22     0          0
99               0037C02550       0037C02435       488.00     0.0130     737.77     736.70     0          0
101              0037C02540       0037C02520       540.00     0.0130     738.31     736.93     0          0
102              0037C02520       0037C02425       169.00     0.0130     736.83     736.52     0          0
104              0037C02560       0037C02550       507.00     0.0130     738.92     737.92     0          0
106              0037C02575       0037C02560       795.00     0.0130     740.71     739.07     0          0
108              003703310        0037C00330       400.00     0.0130     736.32     735.52     0          0
112              0037C03520       0037C03350       315.00     0.0130     737.94     736.97     0          0
113              0037C03350       003703310        185.00     0.0130     736.97     736.42     0          0
116              0037C03335       003703310        1237.00    0.0130     738.98     736.12     0          0
118              0037C03370       0037C03350       730.00     0.0130     736.07     735.44     0          0
122              0037C03540       0037C03525       507.00     0.0130     739.82     738.28     0          0
123              0037C03525       0037C03370       176.00     0.0130     738.07     737.55     0          0
124              0037C03530       0037C03525       185.00     0.0130     739.01     738.28     0          0
126              0037C03380       0037C03370       425.00     0.0130     736.42     736.06     0          0
129              0037C03560       0037C03380       665.00     0.0130     738.34     737.02     0          0
130              0037C035         0037C03380       330.00     0.0130     736.68     736.42     0          0
133              0037C03390       0037C03385       335.00     0.0130     736.95     736.68     0          0
134              0037C03385       0037C03380       330.00     0.0130     736.68     736.42     0          0
136              0037C03575       0037C03385       745.00     0.0130     738.76     737.28     0          0
138              0037C03590       0037C03385       995.00     0.0130     739.08     737.28     0          0
144              0037C03710       0037C03390       440.00     0.0130     737.62     736.95     0          0
145              0037C03645       0037C03390       456.00     0.0130     737.67     737.22     0          0
147              0037C03690       0037C03645       963.00     0.0130     739.24     737.82     0          0
149              0037C03655       0037C03645       569.00     0.0130     738.69     737.82     0          0
151              0037C03420       0037C03390       1535.00    0.0130     739.32     737.22     0          0
159              0037C02600       0037C02595       267.00     0.0130     740.12     739.70     0          0
160              0037C02595       0037C02585       178.00     0.0130     739.70     739.42     0          0
163              0037C02600       0037C02590       224.00     0.0130     740.62     742.92     0          0
164              0037C02590       0037C02585       411.00     0.0130     741.69     741.69     0          0
167              0037C02590       0037C03345       415.00     0.0130     741.69     741.69     0          0
168              0037C02590       0037C03600       415.00     0.0130     741.69     741.69     0          0
170              0037C02590       0037C03660       415.00     0.0130     741.69     739.82     0          0
173              0037C02590       0037C03695       400.00     0.0130     741.69     739.88     0          0
174              0037C03695       0037C03690       270.00     0.0130     739.88     739.33     0          0
175              0037C02585       0037C02550       531.00     0.0130     739.42     737.77     0          0
178              0037C00335       0037C00330       175.00     0.0130     735.16     735.02     0          0
180              0037C04145       0037C00335       305.50     0.0130     737.25     736.41     0          0
182              0037C04150       0037C04145       303.00     0.0130     737.68     737.25     0          0
188              0037C04185       0037C04150       514.00     0.0130     739.10     737.85     0          0
192              0037C04200       0037C04195       303.00     0.0130     745.82     743.82     0          0
193              0037C04195       0037C04185       315.00     0.0130     743.82     739.32     0          0
194              0037C04190       0037C04185       129.00     0.0130     739.77     739.10     0          0
196              0037C04190       0037C04145       895.00     0.0130     739.77     737.52     0          0
203              0037C02250       0037C02215       265.00     0.0130     735.35     734.87     0          0
204              0037C02275       0037C02215       886.00     0.0130     736.60     734.87     0          0
205              0037C02300       0037C02225       1166.00    0.0130     741.13     735.30     0          0
207              0037C02235       0037C02225       352.00     0.0130     736.18     735.30     0          0
208              0037C02295       0037C02225       541.00     0.0130     736.11     735.30     0          0
210              0028C01055       0037C02250       470.00     0.0130     736.19     735.35     0          0
212              0028C00155       0037C02295       257.40     0.0130     736.57     736.11     0          0
217              0028C01050       0037C02150       501.00     0.0130     736.87     733.82     0          0
224              0037C00290       0037C00285       356.00     0.0130     730.91     729.85     0          0
225              0037C00285       0037C00280       343.00     0.0130     729.85     728.82     0          0
226              0037C00280       0037C00275       333.00     0.0130     728.82     727.82     0          0
227              0037C00275       0037C00255       1241.00    0.0130     727.82     724.12     0          0
233              0028C01030       0037C02130       610.00     0.0130     737.24     735.41     0          0
234              0037C02130       0037C00285       710.00     0.0130     735.41     733.24     0          0
235              0028C00837       0037C02110       628.00     0.0130     738.02     736.14     0          0
236              0037C02110       0037C00280       700.00     0.0130     736.14     734.02     0          0
237              0037C02080       0037C02070       571.00     0.0130     736.82     735.17     0          0
238              0037C02070       0037C00275       678.00     0.0130     734.92     732.79     0          0
240              0037C02150       0037C02145       206.00     0.0130     733.44     732.82     0          0
241              0037C02145       0037C00290       608.00     0.0130     732.82     730.91     0          0
245              0037C02195       0037C02165       440.00     0.0130     739.32     737.12     0          0
247              0037C02185       0037C02165       674.00     0.0130     737.57     736.09     0          0
249              0037C02165       0037C02160       223.00     0.0130     736.09     735.42     0          0
250              0037C02160       0037C02145       106.00     0.0130     732.82     732.39     0          0
252              0037C00320       0037C00305       923.00     0.0130     734.44     732.60     0          0
253              0037C00305       0037C00290       687.00     0.0130     732.60     730.96     0          0
255              0037C02385       0037C00305       800.00     0.0130     736.72     734.20     0          0
260              0037C00970       0037C00965       328.00     0.0130     721.89     718.32     0          0
263              0037C00980       0037C00970       660.00     0.0130     729.02     721.89     0          0
265              0028C00820       0037C00985       800.00     0.0130     733.57     730.67     0          0
266              0037C00985       0037C00980       495.00     0.0130     730.42     729.02     0          0
270              0037C01100       0037C01095       303.00     0.0130     732.97     729.97     0          0
271              0037C01095       0037C01080       740.00     0.0130     728.97     723.32     0          0
272              0037C01080       0037C00970       368.00     0.0130     723.32     721.32     0          0
274              0037C00950       0037C00945       325.00     0.0130     715.12     714.62     0          0
275              0037C00945       0037C00940       350.00     0.0130     714.62     713.92     0          0
279              0037C01060       0037C00950       1189.00    0.0130     727.32     723.71     0          0
281              0037C01075       0037C01065       740.00     0.0130     738.67     733.57     0          0
282              0037C01065       0037C01060       496.00     0.0130     733.57     727.57     0          0
286              0037C01045       0037C01035       763.00     0.0130     733.58     732.82     0          0
287              0037C01035       0037C01030       492.00     0.0130     732.82     725.62     0          0
288              0037C01030       0037C00945       1268.00    0.0130     725.32     721.42     0          0
291              0037C01015       0037C01005       794.00     0.0130     726.57     724.17     0          0
292              0037C01005       0037C00940       465.00     0.0130     723.92     722.52     0          0
296              0037C00245       0037C00240       381.00     0.0130     721.00     719.05     0          0
297              0037C00240       0037C00225       840.00     0.0130     719.05     714.85     0          0
298              0037C01935       0037C00240       295.00     0.0130     726.87     724.52     0          0
299              0037C01930       0037C00240       600.00     0.0130     726.82     725.62     0          0
301              0037C01940       0037C01935       241.00     0.0130     729.53     727.27     0          0
303              0037C00015       CSO              23.00      0.0130     697.25     690.35     0          0
311              0220X00135       0220X00110       1623.00    0.0130     740.71     739.46     0          0
312              0220X00110       0220X00070       2036.00    0.0130     739.00     737.97     0          0
313              0220X00070       0220X00060       510.00     0.0130     737.90     736.51     0          0
314              0220X00060       0220X00040       808.00     0.0130     736.51     736.00     0          0
315              0220X00040       33ponbas         725.00     0.0130     732.65     731.25     0          0
316              0220X00045       0220X00040       327.00     0.0130     733.37     733.10     0          0
318              33ponbas         judayout         825.00     0.0130     730.06     729.42     0          0
321              crkwdbas         judayout2        440.00     0.0130     733.32     731.00     0          0
324              creekwood1       crkwdbas         160.00     0.0130     735.15     734.51     0          0
330              0200X00470       0200X00455       821.00     0.0130     737.14     736.33     0          0
331              0200X00455       0200X00435       900.00     0.0130     736.33     735.60     0          0
332              0200X00435       0200X00420       1275.00    0.0130     735.60     734.76     0          0
334              0200X00420       0200X00405       604.00     0.0130     734.76     734.53     0          0
336              0200X00405       0200X00350       3050.00    0.0130     734.53     733.32     0          0
338              0200X00350       36basin          125.00     0.0130     733.32     725.00     0          0
344              0210X00525       0200X00405       1425.00    0.0130     736.82     735.90     0          0
345              0200X00585       0210X00525       971.00     0.0130     739.11     737.17     0          0
346              0200X00530       0210X00525       460.00     0.0130     737.65     736.80     0          0
348              0200X00645       0200X00640       302.00     0.0130     737.82     737.57     0          0
349              0200X00640       0210X00525       757.00     0.0130     738.11     736.97     0          0
354              0200X0785        0200X00780       270.00     0.0130     735.54     734.98     0          0
355              0200X00780       0200X00745       860.00     0.0130     734.98     733.28     0          0
358              0200X00745       0200X00680       917.00     0.0130     733.28     731.45     0          0