;; SWMM5 .inp converted from XPSWMM .xp file
;; Generated by XPSWMM Card Reader
;; Source format: XP_CARD | Original title: Duwamish: Diagonal Avenue Studies

[TITLE]
;;Project Title/Notes
Duwamish: Diagonal Avenue Studies

[OPTIONS]
FLOW_UNITS           CFS
INFILTRATION         HORTON
FLOW_ROUTING         DYNWAVE
LINK_OFFSETS         DEPTH
MIN_SLOPE            0.0
ALLOW_PONDING        NO
SKIP_STEADY_STATE    NO
ROUTING_STEP         00:00:25
VARIABLE_STEP        0.75
INERTIAL_DAMPING     PARTIAL
NORMAL_FLOW_LIMITED  BOTH
MAX_TRIALS           50

[JUNCTIONS]
;;Name           Elev       MaxDepth   InitDepth  SurDepth   Aponded
;;-------------- ---------- ---------- ---------- ---------- ----------
51               5.00       0          0          0          0
101              104.00     0          0          0          0
151              58.00      0          0          0          0
201              8.00       0          0          0          0
251              220.00     0          0          0          0
301              10.00      0          0          0          0
351              18.00      0          0          0          0
401              188.00     0          0          0          0
451              105.00     0          0          0          0
501              6.00       0          0          0          0
551              4.00       0          0          0          0
601              6.00       0          0          0          0
651              2.00       0          0          0          0
701              6.00       0          0          0          0
751              167.00     0          0          0          0
801              292.00     0          0          0          0
851              291.00     0          0          0          0
901              204.00     0          0          0          0
951              273.00     0          0          0          0
303              4.00       0          0          0          0
103              64.00      0          0          0          0
105              174.00     0          0          0          0
107              175.00     0          0          0          0
153              29.00      0          0          0          0
155              27.00      0          0          0          0
203              10.00      0          0          0          0
205              10.00      0          0          0          0
207              10.00      0          0          0          0
253              222.00     0          0          0          0
907              155.00     0          0          0          0
403              192.00     0          0          0          0
753              30.00      0          0          0          0
703              0          0          0          0          0
755              17.00      0          0          0          0
757              6.00       0          0          0          0
803              230.00     0          0          0          0
853              238.00     0          0          0          0
855              230.00     0          0          0          0
903              192.00     0          0          0          0
905              181.00     0          0          0          0

[CONDUITS]
;;Name           From             To               Length     Roughness  InOffset   OutOffset  InitFlow   MaxFlow
;;-------------- ---------------- ---------------- ---------- ---------- ---------- ---------- ---------- ----------
52               51               303              770.00     0.0130     -8.40      -10.80     0          0
102              101              103              1300.00    0.0130     96.50      57.50      0          0
104              103              151              600.00     0.0130     57.50      52.00      0          0
106              105              107              490.00     0.0130     169.60     163.70     0          0
108              107              101              1600.00    0.0130     163.70     96.50      0          0
152              151              153              1965.00    0.0130     52.00      23.40      0          0
154              153              155              310.00     0.0130     23.40      21.50      0          0
156              155              201              2160.00    0.0130     21.50      0.70       0          0
202              201              203              1040.00    0.0130     0.70       -2.60      0          0
204              203              205              140.00     0.0130     -2.60      -7.80      0          0
206              205              207              75.00      0.0130     -7.80      -7.90      0          0
208              207              301              1750.00    0.0130     -7.90      -9.40      0          0
252              251              253              235.00     0.0130     210.30     207.50     0          0
254              253              907              255.00     0.0130     207.50     139.80     0          0
302              301              303              1920.00    0.0130     -9.40      -10.80     0          0
304              303              651              1400.00    0.0130     -10.80     -12.50     0          0
352              351              301              950.00     0.0130     -0.40      -9.40      0          0
402              401              403              400.00     0.0130     178.20     174.10     0          0
404              403              751              400.00     0.0130     174.10     157.00     0          0
452              451              753              2650.00    0.0130     89.00      13.00      0          0
502              501              551              630.00     0.0130     -1.70      -3.30      0          0
552              551              651              2400.00    0.0130     -3.30      -12.50     0          0
602              601              701              1500.00    0.0130     -4.10      -12.90     0          0
652              651              701              820.00     0.0130     -12.50     -12.90     0          0
702              701              703              2070.00    0.0130     -12.90     -14.00     0          0
752              751              753              1250.00    0.0130     157.00     13.00      0          0
754              753              755              300.00     0.0130     13.00      0.50       0          0
756              755              757              350.00     0.0130     0.50       -4.90      0          0
758              757              51               1000.00    0.0130     -4.90      -8.40      0          0
802              801              803              1410.00    0.0130     283.80     222.00     0          0
804              803              401              710.00     0.0130     222.00     178.20     0          0
852              851              853              1430.00    0.0130     278.80     227.40     0          0
854              853              855              285.00     0.0130     227.40     223.20     0          0
856              855              251              640.00     0.0130     223.20     210.30     0          0
902              901              903              190.00     0.0130     187.30     180.10     0          0
904              903              905              165.00     0.0130     180.10     169.00     0          0
906              905              907              360.00     0.0130     169.00     139.80     0          0
908              907              351              1480.00    0.0130     139.80     -0.40      0          0
952              951              751              1750.00    0.0130     263.50     157.00     0          0

[XSECTIONS]
;;Link           Shape        Geom1      Geom2      Geom3      Geom4      Barrels
;;-------------- ------------ ---------- ---------- ---------- ---------- ----------
52               CIRCULAR     7.00       0          0          0          1
102              CIRCULAR     2.50       0          0          0          1
104              CIRCULAR     3.00       0          0          0          1
106              CIRCULAR     1.50       0          0          0          1
108              CIRCULAR     2.00       0          0          0          1
152              CIRCULAR     3.50       0          0          0          1
154              CIRCULAR     4.00       0          0          0          1
156              CIRCULAR     4.50       0          0          0          1
202              CIRCULAR     4.50       0          0          0          1
204              CIRCULAR     4.00       0          0          0          1
206              CIRCULAR     2.50       0          0          0          1
208              CIRCULAR     10.00      0          0          0          1
252              CIRCULAR     3.00       0          0          0          1
254              CIRCULAR     2.00       0          0          0          1
302              CIRCULAR     10.50      0          0          0          1
304              CIRCULAR     11.00      0          0          0          1
352              CIRCULAR     6.00       0          0          0          1
402              CIRCULAR     2.50       0          0          0          1
404              CIRCULAR     2.30       0          0          0          1
452              CIRCULAR     2.00       0          0          0          1
502              CIRCULAR     4.00       0          0          0          1
552              CIRCULAR     5.00       0          0          0          1
602              CIRCULAR     3.00       0          0          0          1
652              CIRCULAR     12.00      0          0          0          1
702              CIRCULAR     12.00      0          0          0          1
752              CIRCULAR     2.50       0          0          0          1
754              CIRCULAR     3.60       0          0          0          1
756              CIRCULAR     4.00       0          0          0          1
758              CIRCULAR     5.00       0          0          0          1
802              CIRCULAR     1.50       0          0          0          1
804              CIRCULAR     1.80       0          0          0          1
852              CIRCULAR     1.30       0          0          0          1
854              CIRCULAR     1.80       0          0          0          1
856              CIRCULAR     2.00       0          0          0          1
902              CIRCULAR     3.00       0          0          0          1
904              CIRCULAR     2.00       0          0          0          1
906              CIRCULAR     3.00       0          0          0          1
908              CIRCULAR     3.00       0          0          0          1
952              CIRCULAR     1.50       0          0          0          1

[LOSSES]
;;Link           Inlet      Outlet     Average    Flap Gate
;;-------------- ---------- ---------- ---------- ----------
52               0          0          0          NO
102              0          0          0          NO
104              0          0          0          NO
106              0          0          0          NO
108              0          0          0          NO
152              0          0          0          NO
154              0          0          0          NO
156              0          0          0          NO
202              0          0          0          NO
204              0          0          0          NO
206              0          0          0          NO
208              0          0          0          NO
252              0          0          0          NO
254              0          0          0          NO
302              0          0          0          NO
304              0          0          0          NO
352              0          0          0          NO
402              0          0          0          NO
404              0          0          0          NO
452              0          0          0          NO
502              0          0          0          NO
552              0          0          0          NO
602              0          0          0          NO
652              0          0          0          NO
702              0          0          0          NO
752              0          0          0          NO
754              0          0          0          NO
756              0          0          0          NO
758              0          0          0          NO
802              0          0          0          NO
804              0          0          0          NO
852              0          0          0          NO
854              0          0          0          NO
856              0          0          0          NO
902              0          0          0          NO
904              0          0          0          NO
906              0          0          0          NO
908              0          0          0          NO
952              0          0          0          NO

[COORDINATES]
;;Node           X-Coord            Y-Coord
;;-------------- ------------------ ------------------
51               505.71             72.20             
101              614.86             -159.25           
151              597.84             -87.68            
201              532.17             -46.56            
251              394.98             -102.37           
301              432.07             22.38             
351              430.25             -25.54            
401              463.80             124.24            
451              402.30             65.96             
501              535.68             94.17             
551              534.84             57.52             
601              569.89             -9.52             
651              534.01             27.12             
701              570.73             28.51             
751              431.50             99.14             
801              535.40             125.07            
851              394.98             -196.35           
901              428.32             -187.39           
951              404.06             97.12             
303              505.65             26.43             
103              611.37             -130.75           
105              610.99             -210.71           
107              613.34             -187.06           
153              575.11             -75.13            
155              553.23             -61.88            
203              504.43             -36.08            
205              476.69             -22.84            
207              449.78             -2.66             
253              394.15             -71.97            
907              433.44             -72.08            
403              433.02             122.09            
753              434.01             67.35             
703              592.40             72.20             
755              461.53             69.43             
757              479.02             70.81             
803              502.94             124.31            
853              394.98             -159.71           
855              396.66             -130.69           
903              431.14             -143.64           
905              432.29             -107.51           

[MAP]
DIMENSIONS 394.15 -210.71 614.86 125.07
Units      None

[REPORT]
INPUT            YES
SUBCATCHMENTS    ALL
NODES            ALL
LINKS            ALL



