;; SWMM5 .inp converted from XPSWMM .xp file
;; Generated by XPSWMM Card Reader
;; Source format: XP_CARD | Original title: (none)

[TITLE]
;;Project Title/Notes
Converted from XPSWMM .xp file

[OPTIONS]
FLOW_UNITS           CFS
INFILTRATION         HORTON
FLOW_ROUTING         DYNWAVE
LINK_OFFSETS         DEPTH
MIN_SLOPE            0.0
ALLOW_PONDING        NO
SKIP_STEADY_STATE    NO
ROUTING_STEP         00:00:60
VARIABLE_STEP        0.75
INERTIAL_DAMPING     PARTIAL
NORMAL_FLOW_LIMITED  BOTH

[JUNCTIONS]
;;Name           Elev       MaxDepth   InitDepth  SurDepth   Aponded
;;-------------- ---------- ---------- ---------- ---------- ----------
0                900.61     0          0          0          0
0                886.69     0          0          0          0
0                901.20     0          0          0          0
0                901.20     0          0          0          0
0                901.20     0          0          0          0
0                901.20     0          0          0          0
0                892.00     0          0          0          0
0                891.50     0          0          0          0
0                898.00     0          0          0          0
0                898.02     0          0          0          0
0                896.10     0          0          0          0
0                896.10     0          0          0          0
0                895.80     0          0          0          0
0                898.10     0          0          0          0
0                900.30     0          0          0          0
0                897.10     0          0          0          0
0                896.30     0          0          0          0
0                899.12     0          0          0          0
0                899.21     0          0          0          0

[CONDUITS]
;;Name           From             To               Length     Roughness  InOffset   OutOffset  InitFlow   MaxFlow
;;-------------- ---------------- ---------------- ---------- ---------- ---------- ---------- ---------- ----------
328              0                0                126.50     0.0130     896.73     895.70     0          0
212              0                0                10.00      0.0130     895.70     894.90     0          0
245              0                0                10.50      0.0130     895.91     894.24     0          0
247              0                0                11.50      0.0130     897.17     896.31     0          0
250              0                0                262.60     0.0130     888.04     887.25     0          0
246              0                0                162.00     0.0130     893.58     890.26     0          0
248              0                0                34.50      0.0130     896.17     893.59     0          0
252              0                0                26.00      0.0130     894.20     892.10     0          0
251              0                0                8.00       0.0130     894.90     892.10     0          0
280              0                0                12.00      0.0130     892.80     890.60     0          0
281              0                0                30.00      0.0130     893.10     889.20     0          0
282              0                0                120.00     0.0130     884.86     884.19     0          0
297              0                0                35.00      0.0130     884.90     884.86     0          0
289              0                0                117.00     0.0130     885.61     885.13     0          0
288              0                0                167.00     0.0130     893.10     885.92     0          0
287              0                0                76.00      0.0130     887.25     885.81     0          0
381              0                0                30.50      0.0130     897.02     896.76     0          0

[ORIFICES]
;;Name           From             To               Type       Offset     Qcoeff     Gated    CloseTime
;;-------------- ---------------- ---------------- ---------- ---------- ---------- -------- ----------
334.1            0                0                SIDE       888.05     0.650      NO       0

[XSECTIONS]
;;Link           Shape        Geom1      Geom2      Geom3      Geom4      Barrels
;;-------------- ------------ ---------- ---------- ---------- ---------- ----------
328              CIRCULAR     1.00       0          0          0          1
212              CIRCULAR     1.50       0          0          0          1
245              CIRCULAR     1.25       0          0          0          1
247              CIRCULAR     1.25       0          0          0          1
250              CIRCULAR     1.75       0          0          0          1
246              CIRCULAR     1.50       0          0          0          1
248              CIRCULAR     1.50       0          0          0          1
252              CIRCULAR     1.00       0          0          0          1
251              CIRCULAR     1.00       0          0          0          1
280              CIRCULAR     1.00       0          0          0          1
281              CIRCULAR     1.00       0          0          0          1
282              CIRCULAR     2.50       0          0          0          1
297              CIRCULAR     2.50       0          0          0          1
289              CIRCULAR     2.00       0          0          0          1
288              CIRCULAR     1.50       0          0          0          1
287              CIRCULAR     1.75       0          0          0          1
381              CIRCULAR     1.00       0          0          0          1
334.1            RECT_CLOSED  1.75       0          0          0          

[LOSSES]
;;Link           Inlet      Outlet     Average    Flap Gate
;;-------------- ---------- ---------- ---------- ----------
328              0          0          0          NO
212              0          0          0          NO
245              0          0          0          NO
247              0          0          0          NO
250              0          0          0          NO
246              0          0          0          NO
248              0          0          0          NO
252              0          0          0          NO
251              0          0          0          NO
280              0          0          0          NO
281              0          0          0          NO
282              0          0          0          NO
297              0          0          0          NO
289              0          0          0          NO
288              0          0          0          NO
287              0          0          0          NO
381              0          0          0          NO

[COORDINATES]
;;Node           X-Coord            Y-Coord
;;-------------- ------------------ ------------------
0                -186819.02         496859.74         
0                -186476.54         496525.49         
0                -187230.93         496413.44         
0                -187224.87         496418.85         
0                -187255.00         496428.73         
0                -187245.92         496433.50         
0                -186888.55         496410.10         
0                -186864.00         496421.98         
0                -186868.85         496689.01         
0                -186863.89         496717.89         
0                -186630.90         496639.53         
0                -186616.18         496669.62         
0                -186613.17         496600.81         
0                -186865.86         496689.68         
0                -186783.56         496854.59         
0                -186772.14         496706.14         
0                -186608.36         496644.48         
0                -186818.28         496958.52         
0                -186817.02         497015.65         

[MAP]
DIMENSIONS -187255.00 496410.10 -186476.54 497015.65
Units      None

[REPORT]
INPUT            YES
SUBCATCHMENTS    ALL
NODES            ALL
LINKS            ALL



