;; SWMM5 .inp converted from XPSWMM .xp file
;; Generated by XPSWMM Card Reader
;; Source format: XP_CARD | Original title: LAKE CITY DRAINAGE BASIN - EXISTING CONDITION 1992

[TITLE]
;;Project Title/Notes
LAKE CITY DRAINAGE BASIN - EXISTING CONDITION 1992

[OPTIONS]
FLOW_UNITS           CFS
INFILTRATION         HORTON
FLOW_ROUTING         DYNWAVE
LINK_OFFSETS         DEPTH
MIN_SLOPE            0.0
ALLOW_PONDING        NO
SKIP_STEADY_STATE    NO
ROUTING_STEP         00:00:10
VARIABLE_STEP        0.75
INERTIAL_DAMPING     NONE
NORMAL_FLOW_LIMITED  BOTH
MAX_TRIALS           50
HEAD_TOLERANCE       0.000

[JUNCTIONS]
;;Name           Elev       MaxDepth   InitDepth  SurDepth   Aponded
;;-------------- ---------- ---------- ---------- ---------- ----------
495              168.90     0          0          0          0
505              168.10     0          0          0          0
575              167.10     0          0          0          0
813              170.00     0          0          0          0
809              169.00     0          0          0          0
605              160.50     0          0          0          0
625              155.50     0          0          0          0
635              152.50     0          0          0          0
645              150.50     0          0          0          0
655              140.50     0          0          0          0
465              193.20     0          0          0          0
475              191.50     0          0          0          0
485              175.50     0          0          0          0
515              168.00     0          0          0          0
565              167.90     0          0          0          0
585              165.70     0          0          0          0
665              135.00     0          0          0          0
675              125.00     0          0          0          0
679              124.00     0          0          0          0
685              90.50      0          0          0          0
695              80.50      0          0          0          0
725              91.50      0          0          0          0
735              90.70      0          0          0          0
705              75.50      0          0          0          0

[STORAGE]
;;Name           Elev       MaxDepth   InitDepth  Shape      Curve/Params
;;-------------- ---------- ---------- ---------- ---------- ----------
595              165.50     3.00       0          FUNCTIONAL 12.57 0          0

[CONDUITS]
;;Name           From             To               Length     Roughness  InOffset   OutOffset  InitFlow   MaxFlow
;;-------------- ---------------- ---------------- ---------- ---------- ---------- ---------- ---------- ----------
510              510              505              70.00      0.0240     323.60     321.80     0          0
512              505              575              300.00     0.0130     321.30     316.30     0          0
532              575              813              300.00     0.0130     316.30     153.68     0          0
810              813              809              172.60     0.0130     153.68     153.34     0          0
808              809              595              100.00     0.0130     153.34     310.61     0          0
600              600              605              130.00     0.0130     310.61     302.40     0          0
620              620              625              250.00     0.0350     302.40     290.20     0          0
630              630              635              130.00     0.0130     290.20     284.30     0          0
640              640              645              350.00     0.0350     284.30     275.00     0          0
650              650              655              110.00     0.0130     275.00     269.00     0          0
480              465              475              550.00     0.0130     185.50     183.90     0          0
490              475              485              750.00     0.0130     183.90     167.80     0          0
500              485              495              150.00     0.0350     167.80     161.80     0          0
520              505              515              100.00     0.0130     160.90     160.50     0          0
530              515              565              70.00      0.0130     160.50     160.10     0          0
570              565              575              77.00      0.0130     160.10     159.50     0          0
580              575              585              120.00     0.0130     159.50     159.00     0          0
590              585              595              172.00     0.0130     159.00     157.50     0          0
660              655              665              600.00     0.0350     134.50     119.50     0          0
670              665              675              69.00      0.0130     119.50     116.50     0          0
680              675              679              650.00     0.0350     116.50     100.00     0          0
6802             679              685              650.00     0.0350     100.00     78.20      0          0
690              700              695              56.00      0.0130     78.20      72.80      0          0
720              725              735              330.00     0.0350     83.50      79.10      0          0
730              735              695              120.00     0.0350     79.10      72.80      0          0
710              695              705              350.00     0.0350     72.80      72.00      0          0

[XSECTIONS]
;;Link           Shape        Geom1      Geom2      Geom3      Geom4      Barrels
;;-------------- ------------ ---------- ---------- ---------- ---------- ----------
510              CIRCULAR     4.00       0          0          0          1
512              CIRCULAR     5.00       0          0          0          1
532              CIRCULAR     5.00       0          0          0          1
810              CIRCULAR     5.00       0          0          0          1
808              CIRCULAR     5.00       8.00       0          0          1
600              CIRCULAR     2.00       0          0          0          1
620              TRAPEZOIDAL  4.00       9.50       0          0          1
630              CIRCULAR     2.50       0          0          0          1
640              TRAPEZOIDAL  3.50       6.50       0          0          1
650              CIRCULAR     2.50       0          0          0          1
480              CIRCULAR     2.00       0          0          0          1
490              CIRCULAR     2.50       0          0          0          1
500              TRAPEZOIDAL  4.50       6.00       0          0          1
520              CIRCULAR     5.00       0          0          0          1
530              CIRCULAR     5.00       0          0          0          1
570              CIRCULAR     5.00       0          0          0          1
580              CIRCULAR     5.00       0          0          0          1
590              CIRCULAR     5.00       0          0          0          1
660              TRAPEZOIDAL  5.00       4.00       0          0          1
670              CIRCULAR     2.50       0          0          0          1
680              TRAPEZOIDAL  5.00       4.00       0          0          1
6802             TRAPEZOIDAL  5.00       4.00       0          0          1
690              CIRCULAR     3.00       0          0          0          1
720              TRAPEZOIDAL  5.00       4.00       0          0          1
730              RECT_CLOSED  6.70       4.90       0          0          1
710              TRAPEZOIDAL  3.00       4.00       0          0          1

[LOSSES]
;;Link           Inlet      Outlet     Average    Flap Gate
;;-------------- ---------- ---------- ---------- ----------
510              0          0          0          NO
512              0          0          0          NO
532              0          0          0          NO
810              0          0          0          NO
808              0          0          0          NO
600              0          0          0          NO
620              0          0          0          NO
630              0          0          0          NO
640              0          0          0          NO
650              0          0          0          NO
480              0          0          0          NO
490              0          0          0          NO
500              0          0          0          NO
520              0          0          0          NO
530              0          0          0          NO
570              0          0          0          NO
580              0          0          0          NO
590              0          0          0          NO
660              0          0          0          NO
670              0          0          0          NO
680              0          0          0          NO
6802             0          0          0          NO
690              0          0          0          NO
720              0          0          0          NO
730              0          0          0          NO
710              0          0          0          NO

[COORDINATES]
;;Node           X-Coord            Y-Coord
;;-------------- ------------------ ------------------
495              -207.54            -504.12           
505              -94.50             -429.97           
575              78.07              -345.75           
813              214.36             -334.66           
809              248.61             -99.35            
605              -139.88            78.87             
625              -72.77             206.10            
635              -80.31             326.47            
645              -65.61             443.46            
655              -101.15            531.23            
595              85.83              -57.22            
465              -271.24            -865.73           
475              -343.35            -766.61           
485              -291.54            -598.22           
515              -233.33            -216.02           
565              -113.58            -134.86           
585              105.94             -191.68           
665              -224.69            516.93            
675              -249.77            436.56            
679              -300.88            347.23            
685              -251.34            197.45            
695              -135.04            76.41             
725              198.13             246.81            
735              22.71              119.61            
705              -251.74            56.14             

[MAP]
DIMENSIONS -343.35 -865.73 248.61 531.23
Units      None

[REPORT]
INPUT            YES
SUBCATCHMENTS    ALL
NODES            ALL
LINKS            ALL



