;; SWMM5 .inp converted from XPSWMM .xp file
;; Generated by XPSWMM Card Reader
;; Source format: XP_CARD | Original title: (none)

[TITLE]
;;Project Title/Notes
Converted from XPSWMM .xp file

[OPTIONS]
FLOW_UNITS           CMS
INFILTRATION         HORTON
FLOW_ROUTING         DYNWAVE
LINK_OFFSETS         DEPTH
MIN_SLOPE            0.0
ALLOW_PONDING        NO
SKIP_STEADY_STATE    NO
ROUTING_STEP         00:00:04
VARIABLE_STEP        0.75
INERTIAL_DAMPING     NONE
NORMAL_FLOW_LIMITED  BOTH
MAX_TRIALS           50

[JUNCTIONS]
;;Name           Elev       MaxDepth   InitDepth  SurDepth   Aponded
;;-------------- ---------- ---------- ---------- ---------- ----------
100              11.00      0          0          0          0
101              11.00      0          0          0          0
102              11.00      0          0          0          0
103              11.00      0          0          0          0
200              11.00      0          0          0          0
201              11.00      0          0          0          0
202              11.00      0          0          0          0
203              11.00      0          0          0          0
300              11.00      0          0          0          0
301              11.00      0          0          0          0
302              11.00      0          0          0          0
303              11.00      0          0          0          0
400              11.00      0          0          0          0
401              11.00      0          0          0          0
402              11.00      0          0          0          0
403              11.00      0          0          0          0
500              11.00      0          0          0          0
501              11.00      0          0          0          0
502              11.00      0          0          0          0
503              11.00      0          0          0          0
600              11.00      0          0          0          0
601              11.00      0          0          0          0
602              11.00      0          0          0          0
603              11.00      0          0          0          0
700              11.00      0          0          0          0
701              11.00      0          0          0          0
702              11.00      0          0          0          0
703              11.00      0          0          0          0
800              11.00      0          0          0          0
801              11.00      0          0          0          0
802              11.00      0          0          0          0
803              11.00      0          0          0          0
900              11.00      0          0          0          0
901              11.00      0          0          0          0
902              11.00      0          0          0          0
903              11.00      0          0          0          0
1000             11.00      0          0          0          0
1001             11.00      0          0          0          0
1002             11.00      0          0          0          0
1003             11.00      0          0          0          0
1100             11.00      0          0          0          0
1101             11.00      0          0          0          0
1102             11.00      0          0          0          0
1103             11.00      0          0          0          0
1200             11.00      0          0          0          0
1201             11.00      0          0          0          0
1202             11.00      0          0          0          0
1203             11.00      0          0          0          0

[CONDUITS]
;;Name           From             To               Length     Roughness  InOffset   OutOffset  InitFlow   MaxFlow
;;-------------- ---------------- ---------------- ---------- ---------- ---------- ---------- ---------- ----------
shape1a          100              101              100.00     0          0.03       0.02       0          0
shape1b          101              102              100.00     0          0.02       0.01       0          0
shape1c          102              103              100.00     0          0.01       0          0          0
shape2a          200              201              100.00     0          0.03       0.02       0          0
shape2b          201              202              100.00     0          0.02       0.01       0          0
shape2c          202              203              100.00     0          0.01       0          0          0
240              ?                ?                0          0          0          0          0          0
shape3a          300              301              100.00     0          0.03       0.02       0          0
shape3b          301              302              100.00     0          0.10       0.09       0          0
shape3c          302              303              100.00     0          0.01       0          0          0
shape4a          400              401              100.00     0          0.03       0.02       0          0
shape4b          401              402              100.00     0          0.09       0.08       0          0
shape4c          402              403              100.00     0          0.01       0          0          0
shape5a          500              501              100.00     0          0.03       0.02       0          0
shape5b          501              502              100.00     0          0.08       0.07       0          0
shape5c          502              503              100.00     0          0.01       0          0          0
shape6a          600              601              100.00     0          0.03       0.02       0          0
shape6b          601              602              100.00     0          0.07       0.06       0          0
shape6c          602              603              100.00     0          0.01       0          0          0
shape7a          700              701              100.00     0          0.03       0.02       0          0
shape7b          701              702              100.00     0          0.06       0.05       0          0
shape7c          702              703              100.00     0          0.01       0          0          0
shape8a          800              801              100.00     0          0.03       0.02       0          0
shape8b          801              802              100.00     0          0.05       0.04       0          0
shape8c          802              803              100.00     0          0.01       0          0          0
shape9a          900              901              100.00     0          0.03       0.02       0          0
shape9b          901              902              100.00     0          0.04       0.03       0          0
shape9c          902              903              100.00     0          0.01       0          0          0
shape10a         1000             1001             100.00     0          0.03       0.02       0          0
shape10b         1001             1002             100.00     0          0.02       0.01       0          0
shape10c         1002             1003             100.00     0          0.01       0          0          0
shape11a         1100             1101             100.00     0          0.03       0.02       0          0
shape11b         1101             1102             100.00     0          0.02       0.01       0          0
shape11c         1102             1103             100.00     0          0.01       0          0          0
shape12a         1200             1201             100.00     0          0.03       0.02       0          0
shape12b         1201             1202             100.00     0          0.02       0.01       0          0
shape12c         1202             1203             100.00     0          0.01       0          0          0
329              ?                ?                0          0          0          0          0          0
330              ?                ?                0          0          0          0          0          0
331              ?                ?                0          0          0          0          0          0
332              ?                ?                0          0          0          0          0          0
333              ?                ?                0          0          0          0          0          0
334              ?                ?                0          0          0          0          0          0
335              ?                ?                0          0          0          0          0          0
336              ?                ?                0          0          0          0          0          0
337              ?                ?                0          0          0          0          0          0
338              ?                ?                0          0          0          0          0          0

[XSECTIONS]
;;Link           Shape        Geom1      Geom2      Geom3      Geom4      Barrels
;;-------------- ------------ ---------- ---------- ---------- ---------- ----------
shape1a          IRREGULAR    10.00      0          0          0          1
shape1b          IRREGULAR    10.00      0          0          0          1
shape1c          IRREGULAR    10.00      0          0          0          1
shape2a          IRREGULAR    10.00      0          0          0          1
shape2b          IRREGULAR    10.00      0          0          0          1
shape2c          IRREGULAR    10.00      0          0          0          1
240              CIRCULAR     0          0          0          0          1
shape3a          IRREGULAR    10.00      0          0          0          1
shape3b          IRREGULAR    10.00      0          0          0          1
shape3c          IRREGULAR    10.00      0          0          0          1
shape4a          IRREGULAR    10.00      0          0          0          1
shape4b          IRREGULAR    10.00      0          0          0          1
shape4c          IRREGULAR    10.00      0          0          0          1
shape5a          IRREGULAR    10.00      0          0          0          1
shape5b          IRREGULAR    10.00      0          0          0          1
shape5c          IRREGULAR    10.00      0          0          0          1
shape6a          IRREGULAR    10.00      0          0          0          1
shape6b          IRREGULAR    10.00      0          0          0          1
shape6c          IRREGULAR    10.00      0          0          0          1
shape7a          IRREGULAR    10.00      0          0          0          1
shape7b          IRREGULAR    10.00      0          0          0          1
shape7c          IRREGULAR    10.00      0          0          0          1
shape8a          IRREGULAR    10.00      0          0          0          1
shape8b          IRREGULAR    10.00      0          0          0          1
shape8c          IRREGULAR    10.00      0          0          0          1
shape9a          IRREGULAR    10.00      0          0          0          1
shape9b          IRREGULAR    10.00      0          0          0          1
shape9c          IRREGULAR    10.00      0          0          0          1
shape10a         IRREGULAR    10.00      0          0          0          1
shape10b         IRREGULAR    10.00      0          0          0          1
shape10c         IRREGULAR    10.00      0          0          0          1
shape11a         IRREGULAR    10.00      0          0          0          1
shape11b         IRREGULAR    10.00      0          0          0          1
shape11c         IRREGULAR    10.00      0          0          0          1
shape12a         IRREGULAR    10.00      0          0          0          1
shape12b         IRREGULAR    10.00      0          0          0          1
shape12c         IRREGULAR    10.00      0          0          0          1
329              CIRCULAR     0          0          0          0          1
330              CIRCULAR     0          0          0          0          1
331              CIRCULAR     0          0          0          0          1
332              CIRCULAR     0          0          0          0          1
333              CIRCULAR     0          0          0          0          1
334              CIRCULAR     0          0          0          0          1
335              CIRCULAR     0          0          0          0          1
336              CIRCULAR     0          0          0          0          1
337              CIRCULAR     0          0          0          0          1
338              CIRCULAR     0          0          0          0          1

[LOSSES]
;;Link           Inlet      Outlet     Average    Flap Gate
;;-------------- ---------- ---------- ---------- ----------
shape1a          0          0          0          NO
shape1b          0          0          0          NO
shape1c          0          0          0          NO
shape2a          0          0          0          NO
shape2b          0          0          0          NO
shape2c          0          0          0          NO
240              0          0          0          NO
shape3a          0          0          0          NO
shape3b          0          0          0          NO
shape3c          0          0          0          NO
shape4a          0          0          0          NO
shape4b          0          0          0          NO
shape4c          0          0          0          NO
shape5a          0          0          0          NO
shape5b          0          0          0          NO
shape5c          0          0          0          NO
shape6a          0          0          0          NO
shape6b          0          0          0          NO
shape6c          0          0          0          NO
shape7a          0          0          0          NO
shape7b          0          0          0          NO
shape7c          0          0          0          NO
shape8a          0          0          0          NO
shape8b          0          0          0          NO
shape8c          0          0          0          NO
shape9a          0          0          0          NO
shape9b          0          0          0          NO
shape9c          0          0          0          NO
shape10a         0          0          0          NO
shape10b         0          0          0          NO
shape10c         0          0          0          NO
shape11a         0          0          0          NO
shape11b         0          0          0          NO
shape11c         0          0          0          NO
shape12a         0          0          0          NO
shape12b         0          0          0          NO
shape12c         0          0          0          NO
329              0          0          0          NO
330              0          0          0          NO
331              0          0          0          NO
332              0          0          0          NO
333              0          0          0          NO
334              0          0          0          NO
335              0          0          0          NO
336              0          0          0          NO
337              0          0          0          NO
338              0          0          0          NO

[COORDINATES]
;;Node           X-Coord            Y-Coord
;;-------------- ------------------ ------------------
100              37.64              -2.36             
101              57.64              17.64             
102              77.64              37.64             
103              97.64              57.64             
200              37.64              -22.36            
201              57.64              -2.36             
202              77.64              17.64             
203              97.64              37.64             
300              37.64              -42.36            
301              57.64              -22.36            
302              77.64              -2.36             
303              97.64              17.64             
400              37.64              -62.36            
401              57.64              -42.36            
402              77.64              -22.36            
403              97.64              -2.36             
500              37.64              -82.36            
501              57.64              -62.36            
502              77.64              -42.36            
503              97.64              -22.36            
600              37.64              -102.36           
601              57.64              -82.36            
602              77.64              -62.36            
603              97.64              -42.36            
700              37.64              -122.36           
701              57.64              -102.36           
702              77.64              -82.36            
703              97.64              -62.36            
800              37.64              -142.36           
801              57.64              -122.36           
802              77.64              -102.36           
803              97.64              -82.36            
900              37.64              -162.36           
901              57.64              -142.36           
902              77.64              -122.36           
903              97.64              -102.36           
1000             37.64              -182.36           
1001             57.64              -162.36           
1002             77.64              -142.36           
1003             97.64              -122.36           
1100             37.64              -202.36           
1101             57.64              -182.36           
1102             77.64              -162.36           
1103             97.64              -142.36           
1200             37.64              -222.36           
1201             57.64              -202.36           
1202             77.64              -182.36           
1203             97.64              -162.36           

[MAP]
DIMENSIONS 37.64 -222.36 97.64 57.64
Units      None

[REPORT]
INPUT            YES
SUBCATCHMENTS    ALL
NODES            ALL
LINKS            ALL



