;; SWMM5 .inp converted from XPSWMM .xp file
;; Generated by XPSWMM Card Reader
;; Source format: XP_CARD | Original title: Waipahu PS Area | Transport Model

[TITLE]
;;Project Title/Notes
Waipahu PS Area | Transport Model

[OPTIONS]
FLOW_UNITS           CFS
INFILTRATION         HORTON
FLOW_ROUTING         DYNWAVE
LINK_OFFSETS         DEPTH
MIN_SLOPE            0.0
ALLOW_PONDING        NO
SKIP_STEADY_STATE    NO
INERTIAL_DAMPING     PARTIAL
NORMAL_FLOW_LIMITED  BOTH

[JUNCTIONS]
;;Name           Elev       MaxDepth   InitDepth  SurDepth   Aponded
;;-------------- ---------- ---------- ---------- ---------- ----------
22310003         837.29     0          0          0          0
22310004         855.50     0          0          0          0
22310005         854.40     0          0          0          0
22310006         860.60     0          0          0          0
22310007         860.00     0          0          0          0
22310008         862.80     0          0          0          0
22310009         864.00     0          0          0          0
22310010         862.82     0          0          0          0
22310013         858.48     0          0          0          0
22310015         858.48     0          0          0          0
22310019         843.40     0          0          0          0
22310021         832.25     0          0          0          0
22310023         832.25     0          0          0          0
22310024         835.40     0          0          0          0
22310025         829.45     0          0          0          0
22310026         831.20     0          0          0          0
22310027         826.20     0          0          0          0
22310028         769.40     0          0          0          0
22310029         783.40     0          0          0          0
22310030         818.75     0          0          0          0
22310031         755.00     0          0          0          0
22310032         816.00     0          0          0          0
22310033         741.70     0          0          0          0
22310034         810.50     0          0          0          0
22310035         805.80     0          0          0          0
22310036         808.40     0          0          0          0
22310037         661.60     0          0          0          0
22310038         711.95     0          0          0          0
22310039         697.05     0          0          0          0
22310040         656.20     0          0          0          0
22310041         683.40     0          0          0          0
22310042         650.50     0          0          0          0
22310043         648.40     0          0          0          0
22310044         645.80     0          0          0          0
22310045         643.20     0          0          0          0
22310046         642.00     0          0          0          0
22310047         645.20     0          0          0          0
22310048         651.20     0          0          0          0
22310049         648.00     0          0          0          0
22320001         789.15     0          0          0          0
22330001         792.52     0          0          0          0
22330002         810.00     0          0          0          0
23300002         584.00     0          0          0          0
23300011         573.60     0          0          0          0
23300015         569.40     0          0          0          0
23300020         565.60     0          0          0          0
23300022         564.40     0          0          0          0
23300023         565.20     0          0          0          0
23300027         555.60     0          0          0          0
23300029         566.30     0          0          0          0
23300031         555.60     0          0          0          0
23300032         569.20     0          0          0          0
23310002         644.00     0          0          0          0
23310003         634.80     0          0          0          0
23310005         615.90     0          0          0          0
23310007         702.60     0          0          0          0
23310008         611.10     0          0          0          0
23310009         605.00     0          0          0          0
23310019         599.70     0          0          0          0
23310034         596.90     0          0          0          0
23310044         595.10     0          0          0          0
23310067         594.00     0          0          0          0
23310084         594.30     0          0          0          0
23310105         593.40     0          0          0          0
23310143         592.20     0          0          0          0
23310198         589.70     0          0          0          0
23310208         589.20     0          0          0          0
23310234         588.90     0          0          0          0
23310251         588.00     0          0          0          0
23310271         587.50     0          0          0          0
23310358         589.90     0          0          0          0
23310408         591.90     0          0          0          0
23310467         586.00     0          0          0          0
23310480         587.90     0          0          0          0
23310550         580.00     0          0          0          0
23310611         578.80     0          0          0          0
23310644         577.20     0          0          0          0
23310995         596.80     0          0          0          0
23311014         585.70     0          0          0          0
23311044         592.40     0          0          0          0
23311091         594.40     0          0          0          0
23311110         611.80     0          0          0          0
23311117         595.60     0          0          0          0
23311125         611.90     0          0          0          0
23311127         611.50     0          0          0          0
23311135         612.70     0          0          0          0
23311147         600.00     0          0          0          0
23311149         611.60     0          0          0          0
23311169         702.70     0          0          0          0
23311192         607.60     0          0          0          0
23311196         604.00     0          0          0          0
23311201         606.40     0          0          0          0
23311208         701.80     0          0          0          0
23311213         696.00     0          0          0          0
23311216         699.80     0          0          0          0
23311218         701.20     0          0          0          0
23311234         692.20     0          0          0          0
23311300         691.20     0          0          0          0
23311327         690.20     0          0          0          0
23311349         687.30     0          0          0          0
23320005         805.60     0          0          0          0
23320006         804.40     0          0          0          0
23320007         804.40     0          0          0          0
23320008         795.60     0          0          0          0
23320009         757.00     0          0          0          0
23320010         790.60     0          0          0          0
23320012         789.20     0          0          0          0
23320013         786.00     0          0          0          0
23320014         756.40     0          0          0          0
23320015         751.00     0          0          0          0
23320016         778.00     0          0          0          0
23320017         723.93     0          0          0          0
23320018         758.00     0          0          0          0
23320022         745.20     0          0          0          0
23320033         771.00     0          0          0          0
23320035         742.00     0          0          0          0
23320058         757.00     0          0          0          0
23320074         760.00     0          0          0          0
23320076         742.00     0          0          0          0
23320101         765.00     0          0          0          0
23320106         774.00     0          0          0          0
23320127         733.00     0          0          0          0
23320138         729.85     0          0          0          0
23320141         732.00     0          0          0          0
23320144         772.00     0          0          0          0
23320148         774.00     0          0          0          0
23320154         732.49     0          0          0          0
23320167         773.00     0          0          0          0
23320168         768.20     0          0          0          0
23320227         764.00     0          0          0          0
23320230         734.70     0          0          0          0
23320276         734.30     0          0          0          0
23320302         761.20     0          0          0          0
23320318         732.50     0          0          0          0
23320355         730.30     0          0          0          0
23320365         761.70     0          0          0          0
23320386         732.60     0          0          0          0
23320425         735.00     0          0          0          0
23320470         733.80     0          0          0          0
23320476         761.60     0          0          0          0
23320534         730.00     0          0          0          0
23320597         729.00     0          0          0          0
23320598         735.67     0          0          0          0
23320658         730.00     0          0          0          0
23320664         736.26     0          0          0          0
23320709         736.78     0          0          0          0
23320761         731.00     0          0          0          0
23320857         732.60     0          0          0          0
23320907         726.60     0          0          0          0
23320933         733.30     0          0          0          0
23321116         730.80     0          0          0          0
23321374         728.30     0          0          0          0
23321604         726.20     0          0          0          0
23321844         722.00     0          0          0          0
23322025         713.40     0          0          0          0
23322028         718.80     0          0          0          0
23330093         781.42     0          0          0          0
23330116         780.10     0          0          0          0
23330118         780.09     0          0          0          0
23330129         778.90     0          0          0          0
23330151         777.66     0          0          0          0
23330228         777.21     0          0          0          0
23330238         775.90     0          0          0          0
23330324         774.09     0          0          0          0
23330425         771.65     0          0          0          0
23330485         769.10     0          0          0          0
23330549         766.71     0          0          0          0
23330602         763.41     0          0          0          0
23330634         761.41     0          0          0          0
23330640         759.49     0          0          0          0
23330644         762.40     0          0          0          0
23330647         768.00     0          0          0          0
23330649         737.47     0          0          0          0
23330654         737.96     0          0          0          0
24310052         688.40     0          0          0          0
24310070         687.00     0          0          0          0
24310082         688.00     0          0          0          0
24310093         686.60     0          0          0          0
24310108         687.20     0          0          0          0
24310145         686.50     0          0          0          0
24310195         691.90     0          0          0          0
24310199         687.60     0          0          0          0
24310202         685.50     0          0          0          0
24310287         681.03     0          0          0          0
24310296         683.00     0          0          0          0
24310356         681.80     0          0          0          0
24310376         680.40     0          0          0          0
24310390         679.00     0          0          0          0
24310464         677.40     0          0          0          0
24310612         678.30     0          0          0          0
24310637         676.00     0          0          0          0
24310679         677.40     0          0          0          0
24310716         673.30     0          0          0          0
24310761         675.60     0          0          0          0
24310802         675.10     0          0          0          0
24310807         674.80     0          0          0          0
24310821         674.50     0          0          0          0
24310849         674.60     0          0          0          0
24310978         677.00     0          0          0          0
24310997         675.80     0          0          0          0
24311007         671.60     0          0          0          0
24311026         672.10     0          0          0          0
24311057         674.70     0          0          0          0
24311086         670.90     0          0          0          0
24311110         671.00     0          0          0          0
24311129         672.80     0          0          0          0
24311201         672.90     0          0          0          0
24311211         660.56     0          0          0          0
24311212         672.20     0          0          0          0
24311334         678.40     0          0          0          0
24311479         676.90     0          0          0          0
24311625         668.40     0          0          0          0
24311732         659.70     0          0          0          0
24311844         651.60     0          0          0          0
24311961         651.20     0          0          0          0
24311978         656.50     0          0          0          0
24311984         655.70     0          0          0          0
24312008         656.90     0          0          0          0
24312013         696.70     0          0          0          0
24312016         660.30     0          0          0          0
24312022         644.80     0          0          0          0
24312032         659.00     0          0          0          0
24312055         656.50     0          0          0          0
24312074         668.90     0          0          0          0
24312150         635.40     0          0          0          0
24320151         705.20     0          0          0          0
24320488         709.00     0          0          0          0
24320520         709.20     0          0          0          0
24320561         708.10     0          0          0          0
24320572         708.00     0          0          0          0
24320574         706.00     0          0          0          0
24320576         709.20     0          0          0          0
24320582         707.80     0          0          0          0
24320620         707.30     0          0          0          0
24320637         706.50     0          0          0          0
24320648         706.00     0          0          0          0
24320671         707.20     0          0          0          0
24320695         707.00     0          0          0          0
24320701         707.60     0          0          0          0
24320753         706.50     0          0          0          0
24320776         706.40     0          0          0          0
24320802         705.00     0          0          0          0
24320834         703.70     0          0          0          0
24320898         706.50     0          0          0          0
24320932         706.80     0          0          0          0
24320944         709.20     0          0          0          0
24320945         707.40     0          0          0          0
24320968         707.00     0          0          0          0
24320973         708.80     0          0          0          0
24320980         709.50     0          0          0          0
24321152         713.40     0          0          0          0
24321173         713.40     0          0          0          0
24321321         710.10     0          0          0          0
24321487         704.65     0          0          0          0
24321492         712.50     0          0          0          0
24321499         709.40     0          0          0          0
24321507         705.70     0          0          0          0
24321514         705.90     0          0          0          0
24321555         704.80     0          0          0          0
24321558         703.20     0          0          0          0
24321570         708.00     0          0          0          0
24321582         707.70     0          0          0          0
24321599         702.80     0          0          0          0
24321610         797.20     0          0          0          0
24321619         694.00     0          0          0          0
24321649         686.10     0          0          0          0
24321701         681.40     0          0          0          0
24321769         668.80     0          0          0          0
24321844         658.40     0          0          0          0
24321919         653.80     0          0          0          0
24321980         655.10     0          0          0          0
24322014         653.90     0          0          0          0
24322199         654.00     0          0          0          0
24322254         694.80     0          0          0          0
24322400         704.60     0          0          0          0
25300363         652.80     0          0          0          0
25300404         651.20     0          0          0          0
25300438         649.00     0          0          0          0
25300493         646.00     0          0          0          0
25300534         641.40     0          0          0          0
25300557         639.80     0          0          0          0
25300592         635.00     0          0          0          0
25300621         629.20     0          0          0          0
25300663         622.80     0          0          0          0
25300691         617.30     0          0          0          0
25300747         604.80     0          0          0          0
25300810         594.60     0          0          0          0
25300822         593.20     0          0          0          0
25300845         592.50     0          0          0          0
25300848         592.30     0          0          0          0
25300895         590.50     0          0          0          0
25300931         586.10     0          0          0          0
25300968         590.00     0          0          0          0
25300976         583.90     0          0          0          0
25301019         579.90     0          0          0          0
25301080         583.40     0          0          0          0
25301101         577.20     0          0          0          0
25301143         573.50     0          0          0          0
25301164         572.40     0          0          0          0
25301175         572.10     0          0          0          0
25301181         571.90     0          0          0          0
25301182         580.80     0          0          0          0
25301222         568.10     0          0          0          0
25301250         578.80     0          0          0          0
25301265         563.30     0          0          0          0
25301342         576.40     0          0          0          0
25301439         575.00     0          0          0          0
25301530         572.80     0          0          0          0
25301590         560.20     0          0          0          0
25301599         569.80     0          0          0          0
25301636         567.40     0          0          0          0
25301706         563.40     0          0          0          0
25301712         558.10     0          0          0          0
25301732         560.60     0          0          0          0
25310036         624.30     0          0          0          0
25310116         616.50     0          0          0          0
25310123         616.20     0          0          0          0
25310126         615.90     0          0          0          0
25310155         615.00     0          0          0          0
25310162         616.70     0          0          0          0
25310166         614.50     0          0          0          0
25310203         613.10     0          0          0          0
25310218         611.80     0          0          0          0
25310260         613.10     0          0          0          0
25310366         609.30     0          0          0          0
25310392         612.10     0          0          0          0
25310395         614.10     0          0          0          0
25310402         610.10     0          0          0          0
25310489         605.90     0          0          0          0
25310497         605.00     0          0          0          0
25310513         607.20     0          0          0          0
25310583         608.50     0          0          0          0
25310588         606.10     0          0          0          0
25310603         608.50     0          0          0          0
25310608         606.30     0          0          0          0
25310620         602.20     0          0          0          0
25310640         607.10     0          0          0          0
25310874         599.80     0          0          0          0
25311106         595.50     0          0          0          0
25311161         593.30     0          0          0          0
25311297         578.90     0          0          0          0
25311315         581.20     0          0          0          0
25311478         570.20     0          0          0          0
25311484         575.40     0          0          0          0
25311572         564.60     0          0          0          0
25311600         572.20     0          0          0          0
25311637         560.00     0          0          0          0
25311694         569.40     0          0          0          0
25311699         557.10     0          0          0          0
25311702         565.10     0          0          0          0
25311725         564.50     0          0          0          0
25311735         566.30     0          0          0          0
25311790         566.20     0          0          0          0
25311825         563.00     0          0          0          0
25311876         563.80     0          0          0          0
25311898         559.00     0          0          0          0
25311899         562.10     0          0          0          0
25311915         561.40     0          0          0          0
25311924         575.80     0          0          0          0
25311927         572.10     0          0          0          0
25311948         573.50     0          0          0          0
25311953         579.80     0          0          0          0
25311960         568.22     0          0          0          0
25311964         561.10     0          0          0          0
25311977         574.40     0          0          0          0
25311980         575.30     0          0          0          0
25311997         566.20     0          0          0          0
25312036         560.40     0          0          0          0
25312037         556.90     0          0          0          0
25312051         556.70     0          0          0          0
25312106         565.40     0          0          0          0
25312116         560.20     0          0          0          0
25312157         564.90     0          0          0          0
25312166         554.90     0          0          0          0
25312169         560.30     0          0          0          0
25312250         566.30     0          0          0          0
25312272         558.20     0          0          0          0
25312295         569.15     0          0          0          0
25312331         563.90     0          0          0          0
25312356         563.50     0          0          0          0
25312369         563.00     0          0          0          0
25312380         552.30     0          0          0          0
25312409         565.30     0          0          0          0
25312412         564.40     0          0          0          0
25312416         551.20     0          0          0          0
25312417         558.00     0          0          0          0
25312426         550.40     0          0          0          0
25312432         557.20     0          0          0          0
25312456         558.00     0          0          0          0
25312457         562.00     0          0          0          0
25312515         561.80     0          0          0          0
25312581         543.70     0          0          0          0
25312591         560.40     0          0          0          0
25312644         548.50     0          0          0          0
25312784         548.80     0          0          0          0
25312811         545.40     0          0          0          0
25320007         640.20     0          0          0          0
25320014         671.98     0          0          0          0
25320060         651.90     0          0          0          0
25320083         641.00     0          0          0          0
25320085         622.00     0          0          0          0
25320108         636.00     0          0          0          0
25320111         614.60     0          0          0          0
25320115         614.00     0          0          0          0
25320129         610.60     0          0          0          0
25320131         630.40     0          0          0          0
25320166         615.20     0          0          0          0
25320182         611.60     0          0          0          0
25320190         617.00     0          0          0          0
25320214         616.20     0          0          0          0
25320220         604.40     0          0          0          0
25320225         613.60     0          0          0          0
25320226         600.95     0          0          0          0
25320232         613.00     0          0          0          0
25320238         614.00     0          0          0          0
25320240         604.80     0          0          0          0
25320282         595.50     0          0          0          0
25320300         599.70     0          0          0          0
25320327         583.50     0          0          0          0
25320329         582.00     0          0          0          0
25320330         588.00     0          0          0          0
25320336         588.30     0          0          0          0
25320344         582.50     0          0          0          0
25320349         588.70     0          0          0          0
25320358         588.90     0          0          0          0
25320371         592.40     0          0          0          0
25320375         588.10     0          0          0          0
25320376         586.60     0          0          0          0
25320382         583.90     0          0          0          0
25320420         581.30     0          0          0          0
25320438         579.10     0          0          0          0
25320454         576.80     0          0          0          0
25320457         578.10     0          0          0          0
25320461         577.10     0          0          0          0
26300017         556.80     0          0          0          0
26300237         552.40     0          0          0          0
26300275         547.90     0          0          0          0
26300298         549.00     0          0          0          0
26310158         531.70     0          0          0          0
26310201         557.80     0          0          0          0
26310265         518.30     0          0          0          0
26310290         552.20     0          0          0          0
26310348         510.20     0          0          0          0
26310381         550.00     0          0          0          0
26310483         547.60     0          0          0          0
26310490         511.60     0          0          0          0
26310533         546.80     0          0          0          0
26310540         549.20     0          0          0          0
26310581         502.80     0          0          0          0
26310593         543.90     0          0          0          0
26310603         499.92     0          0          0          0
26310670         500.40     0          0          0          0
26310717         542.40     0          0          0          0
26310771         497.60     0          0          0          0
26310807         531.90     0          0          0          0
26310824         537.20     0          0          0          0
26310839         532.80     0          0          0          0
26310857         534.40     0          0          0          0
26310865         498.40     0          0          0          0
26310957         502.80     0          0          0          0
26311028         520.00     0          0          0          0
26311040         500.00     0          0          0          0
26311080         498.50     0          0          0          0
26311133         493.00     0          0          0          0
26311190         493.00     0          0          0          0
26311194         495.50     0          0          0          0