;; SWMM5 .inp converted from XPSWMM .xp file
;; Generated by XPSWMM Card Reader
;; Source format: XP_CARD | Original title: SWMM  simulation of High Density Residential (HDR)

[TITLE]
;;Project Title/Notes
SWMM  simulation of High Density Residential (HDR)

[OPTIONS]
FLOW_UNITS           CFS
INFILTRATION         HORTON
FLOW_ROUTING         DYNWAVE
LINK_OFFSETS         DEPTH
MIN_SLOPE            0.0
ALLOW_PONDING        NO
SKIP_STEADY_STATE    NO
ROUTING_STEP         00:00:20
VARIABLE_STEP        0.75
INERTIAL_DAMPING     PARTIAL
NORMAL_FLOW_LIMITED  BOTH

[JUNCTIONS]
;;Name           Elev       MaxDepth   InitDepth  SurDepth   Aponded
;;-------------- ---------- ---------- ---------- ---------- ----------
0                9.45       0          0          0          0
0                9.45       0          0          0          0
0                9.15       0          0          0          0
0                8.80       0          0          0          0
0                9.30       0          0          0          0
0                9.30       0          0          0          0
0                9.30       0          0          0          0
0                9.19       0          0          0          0
0                9.40       0          0          0          0
0                8.48       0          0          0          0
0                8.77       0          0          0          0
0                9.14       0          0          0          0
0                9.24       0          0          0          0
0                9.80       0          0          0          0
0                9.47       0          0          0          0
0                9.15       0          0          0          0
0                11.00      0          0          0          0
0                11.00      0          0          0          0
0                9.30       0          0          0          0

[CONDUITS]
;;Name           From             To               Length     Roughness  InOffset   OutOffset  InitFlow   MaxFlow
;;-------------- ---------------- ---------------- ---------- ---------- ---------- ---------- ---------- ----------
201              0                0                110.00     0.0220     4.32       3.57       0          0
202              0                0                205.00     0.0220     3.57       3.08       0          0
204              0                0                175.00     0.0220     3.08       2.67       0          0
206              0                0                165.00     0.0220     2.67       2.50       0          0
208              0                0                240.00     0.0130     2.50       2.11       0          0
210              0                0                220.00     0.0130     2.11       1.00       0          0
214              0                0                210.00     0.0220     6.20       5.89       0          0
215              0                0                165.00     0.0220     5.89       5.26       0          0
217              0                0                40.00      0.0220     5.26       4.31       0          0
219              0                0                90.00      0.0220     4.31       3.66       0          0
221              0                0                40.00      0.0220     3.66       2.50       0          0
224              0                0                105.00     0.0220     3.10       3.06       0          0
225              0                0                32.00      0.0220     3.06       2.11       0          0
228              0                0                105.00     0.0220     3.14       3.06       0          0
230              0                0                110.00     0.0220     3.17       3.08       0          0
233              0                0                0          0          0          0          0          0
emerg            0                0                100.00     0.0130     2.50       2.50       0          0
234              ?                0                0          0          0          0          0          0

[XSECTIONS]
;;Link           Shape        Geom1      Geom2      Geom3      Geom4      Barrels
;;-------------- ------------ ---------- ---------- ---------- ---------- ----------
201              CIRCULAR     1.75       0          0          0          1
202              CIRCULAR     2.50       0          0          0          1
204              CIRCULAR     2.50       0          0          0          1
206              CIRCULAR     2.50       0          0          0          1
208              CIRCULAR     3.00       0          0          0          1
210              CIRCULAR     4.00       0          0          0          1
214              CIRCULAR     2.00       0          0          0          1
215              CIRCULAR     2.25       0          0          0          1
217              CIRCULAR     2.50       0          0          0          1
219              CIRCULAR     3.00       0          0          0          1
221              CIRCULAR     3.00       0          0          0          1
224              CIRCULAR     1.50       0          0          0          1
225              CIRCULAR     1.50       0          0          0          1
228              CIRCULAR     1.50       0          0          0          1
230              CIRCULAR     1.75       0          0          0          1
233              CIRCULAR     0          0          0          0          1
emerg            CIRCULAR     3.00       0          0          0          1
234              CIRCULAR     0          0          0          0          1

[LOSSES]
;;Link           Inlet      Outlet     Average    Flap Gate
;;-------------- ---------- ---------- ---------- ----------
201              0          0          0          NO
202              0          0          0          NO
204              0          0          0          NO
206              0          0          0          NO
208              0          0          0          NO
210              0          0          0          NO
214              0          0          0          NO
215              0          0          0          NO
217              0          0          0          NO
219              0          0          0          NO
221              0          0          0          NO
224              0          0          0          NO
225              0          0          0          NO
228              0          0          0          NO
230              0          0          0          NO
233              0          0          0          NO
emerg            0          0          0          NO
234              0          0          0          NO

[COORDINATES]
;;Node           X-Coord            Y-Coord
;;-------------- ------------------ ------------------
0                28.25              28.25             
0                8.25               48.25             
0                28.25              68.25             
0                48.25              88.25             
0                78.60              88.08             
0                108.25             88.25             
0                138.25             88.25             
0                -1.75              148.25            
0                18.25              148.25            
0                38.25              148.25            
0                58.25              148.25            
0                68.25              118.25            
0                88.25              128.25            
0                108.25             128.25            
0                128.25             128.25            
0                48.25              48.25             
0                41.70              -3.26             
0                41.70              18.13             
0                100.60             51.58             

[MAP]
DIMENSIONS -1.75 -3.26 138.25 148.25
Units      None

[REPORT]
INPUT            YES
SUBCATCHMENTS    ALL
NODES            ALL
LINKS            ALL



