;; SWMM5 .inp converted from XPSWMM .xp file
;; Generated by XPSWMM Card Reader
;; Source format: XP_CARD | Original title: (none)

[TITLE]
;;Project Title/Notes
Converted from XPSWMM .xp file

[OPTIONS]
FLOW_UNITS           CFS
INFILTRATION         HORTON
FLOW_ROUTING         DYNWAVE
LINK_OFFSETS         DEPTH
MIN_SLOPE            0.0
ALLOW_PONDING        NO
SKIP_STEADY_STATE    NO
ROUTING_STEP         00:00:15
VARIABLE_STEP        0.75
INERTIAL_DAMPING     NONE
NORMAL_FLOW_LIMITED  BOTH
MAX_TRIALS           50
HEAD_TOLERANCE       0.0033

[JUNCTIONS]
;;Name           Elev       MaxDepth   InitDepth  SurDepth   Aponded
;;-------------- ---------- ---------- ---------- ---------- ----------
0                861.60     0          0          0          0
0                858.40     0          0          0          0
0                821.50     0          0          0          0
0                791.20     0          0          0          0
0                769.00     0          0          0          0
0                746.24     0          0          0          0
0                714.30     0          0          0          0
0                736.30     0          0          0          0
0                712.60     0          0          0          0
0                698.00     0          0          0          0
0                691.50     0          0          0          0
0                687.80     0          0          0          0
0                668.20     0          0          0          0
0                668.60     0          0          0          0
0                661.80     0          0          0          0
0                657.50     0          0          0          0
0                877.93     0          0          0          0
0                883.00     0          0          0          0
0                911.20     0          0          0          0
0                910.20     0          0          0          0
0                877.60     0          0          0          0
0                878.50     0          0          0          0
0                869.20     0          0          0          0
0                866.00     0          0          0          0
0                875.80     0          0          0          0
0                866.80     0          0          0          0
0                859.40     0          0          0          0
0                861.50     0          0          0          0
0                870.00     0          0          0          0
0                924.80     0          0          0          0
0                882.80     0          0          0          0
0                870.50     0          0          0          0
0                861.20     0          0          0          0
0                857.10     0          0          0          0
0                888.50     0          0          0          0
0                871.70     0          0          0          0
0                860.00     0          0          0          0
0                838.60     0          0          0          0
0                858.50     0          0          0          0
0                830.70     0          0          0          0
0                819.00     0          0          0          0
0                763.60     0          0          0          0
0                732.00     0          0          0          0
0                847.50     0          0          0          0
0                839.40     0          0          0          0
0                847.80     0          0          0          0
0                802.20     0          0          0          0
0                765.20     0          0          0          0
0                843.20     0          0          0          0
0                819.20     0          0          0          0
0                792.00     0          0          0          0
0                778.00     0          0          0          0
0                761.50     0          0          0          0
0                747.40     0          0          0          0
0                728.00     0          0          0          0
0                735.00     0          0          0          0
0                710.30     0          0          0          0
0                697.50     0          0          0          0
0                699.00     0          0          0          0
0                693.00     0          0          0          0
0                673.40     0          0          0          0
0                671.80     0          0          0          0
0                659.40     0          0          0          0
0                637.80     0          0          0          0
0                650.60     0          0          0          0
0                650.80     0          0          0          0
0                653.60     0          0          0          0
0                682.00     0          0          0          0
0                672.40     0          0          0          0
0                661.40     0          0          0          0
0                653.80     0          0          0          0
0                830.00     0          0          0          0
0                802.60     0          0          0          0
0                761.60     0          0          0          0
0                749.90     0          0          0          0
0                748.60     0          0          0          0
0                726.50     0          0          0          0
0                710.50     0          0          0          0
0                702.00     0          0          0          0
0                707.00     0          0          0          0
0                952.72     0          0          0          0
0                941.85     0          0          0          0
0                926.98     0          0          0          0
0                917.75     0          0          0          0
0                897.20     0          0          0          0
0                929.90     0          0          0          0
0                881.62     0          0          0          0
0                976.19     0          0          0          0
0                949.99     0          0          0          0
0                948.71     0          0          0          0
0                921.86     0          0          0          0
0                896.47     0          0          0          0
0                865.50     0          0          0          0
0                752.45     0          0          0          0
0                752.45     0          0          0          0
0                750.60     0          0          0          0
0                735.40     0          0          0          0

[CONDUITS]
;;Name           From             To               Length     Roughness  InOffset   OutOffset  InitFlow   MaxFlow
;;-------------- ---------------- ---------------- ---------- ---------- ---------- ---------- ---------- ----------
755              0                0                2737.00    0.0130     846.64     842.89     0          0
756              0                0                2444.00    0.0130     842.85     809.58     0          0
757              0                0                4403.00    0.0130     800.12     774.77     0          0
758              0                0                2323.50    0.0130     774.77     748.96     0          0
759              0                0                289.00     0.0130     748.79     740.58     0          0
760              0                0                3541.10    0.0130     724.19     696.55     0          0
762              0                0                1922.50    0.0130     720.09     695.93     0          0
763              0                0                1011.00    0.0130     695.93     687.75     0          0
764              0                0                2370.50    0.0130     687.75     671.89     0          0
765              0                0                1815.00    0.0130     670.96     666.83     0          0
766              0                0                3565.00    0.0130     666.83     646.40     0          0
767              0                0                843.00     0.0130     645.48     644.47     0          0
768              0                0                2810.00    0.0130     644.47     641.05     0          0
769              0                0                2522.50    0.0130     641.05     638.09     0          0
770              0                0                2931.00    0.0130     638.09     634.51     0          0
771              0                0                1046.55    0.0130     868.52     866.65     0          0
772              0                0                686.80     0.0130     866.65     865.40     0          0
773              0                0                2407.40    0.0130     897.76     883.60     0          0
774              0                0                1380.80    0.0130     883.60     866.20     0          0
775              0                0                2461.80    0.0130     865.40     861.45     0          0
776              0                0                3089.20    0.0130     861.45     857.60     0          0
777              0                0                3532.70    0.0130     857.60     852.09     0          0
778              0                0                1745.10    0.0130     852.09     849.94     0          0
779              0                0                3129.45    0.0130     860.29     852.98     0          0
780              0                0                1400.50    0.0130     852.98     850.74     0          0
781              0                0                667.70     0.0130     849.94     849.12     0          0
782              0                0                2403.37    0.0130     849.12     846.23     0          0
783              0                0                2886.00    0.0130     846.23     842.77     0          0
784              0                0                2188.90    0.0130     906.87     868.28     0          0
785              0                0                3936.40    0.0130     868.28     859.80     0          0
786              0                0                1324.00    0.0130     859.80     856.23     0          0
787              0                0                1827.00    0.0130     851.35     846.86     0          0
788              0                0                2741.00    0.0130     842.17     840.43     0          0
789              0                0                3314.60    0.0130     879.27     858.07     0          0
790              0                0                2661.00    0.0130     858.07     841.63     0          0
791              0                0                3588.00    0.0130     840.43     823.87     0          0
792              0                0                966.00     0.0130     823.87     818.11     0          0
793              0                0                1394.00    0.0130     842.50     819.24     0          0
794              0                0                1648.00    0.0130     818.11     808.25     0          0
795              0                0                865.00     0.0130     807.25     802.04     0          0
796              0                0                2248.50    0.0130     751.02     723.88     0          0
797              0                0                350.00     0.0130     722.73     721.61     0          0
798              0                0                3242.60    0.0130     827.00     818.20     0          0
799              0                0                3218.80    0.0130     818.10     792.42     0          0
800              0                0                1896.40    0.0130     833.53     795.02     0          0
801              0                0                3658.35    0.0130     792.31     757.18     0          0
802              0                0                3060.20    0.0130     757.10     723.05     0          0
803              0                0                4414.00    0.0130     830.29     800.04     0          0
804              0                0                3379.00    0.0130     800.04     777.38     0          0
805              0                0                2462.50    0.0130     777.38     747.44     0          0
806              0                0                1033.50    0.0130     749.95     747.69     0          0
807              0                0                2360.00    0.0130     747.44     731.74     0          0
808              0                0                2318.00    0.0130     731.74     715.13     0          0
809              0                0                1480.50    0.0130     714.88     710.31     0          0
810              0                0                3994.00    0.0130     710.31     695.08     0          0
811              0                0                3629.00    0.0130     694.83     683.80     0          0
812              0                0                363.00     0.0130     683.80     682.68     0          0
813              0                0                4612.50    0.0130     682.15     675.20     0          0
814              0                0                2998.00    0.0130     675.10     658.10     0          0
815              0                0                2643.50    0.0130     657.76     652.48     0          0
816              0                0                4307.50    0.0130     652.48     643.86     0          0
817              0                0                450.00     0.0130     643.32     623.40     0          0
818              0                0                2177.01    0.0130     623.22     620.61     0          0
819              0                0                711.50     0.0130     620.61     619.60     0          0
820              0                0                761.00     0.0130     619.75     618.28     0          0
822              0                0                2952.50    0.0130     670.57     656.80     0          0
823              0                0                2601.50    0.0130     656.80     646.30     0          0
824              0                0                3136.00    0.0130     645.95     630.59     0          0
825              0                0                375.60     0.0130     630.59     621.75     0          0
826              0                0                3363.00    0.0130     813.44     781.22     0          0
827              0                0                2685.50    0.0130     781.22     748.84     0          0
828              0                0                1305.50    0.0130     748.59     737.91     0          0
829              0                0                2664.50    0.0130     737.66     733.69     0          0
830              0                0                2099.00    0.0130     733.69     706.89     0          0
831              0                0                3149.50    0.0130     706.89     694.92     0          0
832              0                0                681.00     0.0130     694.92     684.04     0          0
833              0                0                365.50     0.0130     682.69     682.15     0          0
957              0                0                1382.00    0.0130     684.56     675.62     0          0
971              0                0                1089.10    0.0130     942.69     932.04     0          0
972              0                0                2987.85    0.0130     931.91     916.68     0          0
973              0                0                2200.25    0.0130     916.48     910.06     0          0
974              0                0                1146.30    0.0130     910.06     889.33     0          0
975              0                0                2359.13    0.0130     889.13     872.21     0          0
976              0                0                2171.80    0.0130     920.06     872.51     0          0
977              0                0                1006.50    0.0130     871.97     868.52     0          0
978              0                0                3194.30    0.0130     960.62     935.02     0          0
979              0                0                3407.34    0.0130     935.02     906.87     0          0
980              0                0                4495.15    0.0130     932.33     909.06     0          0
981              0                0                4593.35    0.0130     908.86     883.70     0          0
982              0                0                1542.77    0.0130     883.53     879.27     0          0
996              0                0                2271.00    0.0130     856.23     851.35     0          0
759              0                0                312.40     0.0130     749.10     743.96     0          0
998              0                0                497.90     0.0130     743.96     739.85     0          0
999              0                0                1986.80    0.0130     739.43     724.19     0          0
1003FHC05007C    0                0                3014.00    0.0120     740.58     720.09     0          0
1005FHC056025C   0                0                350.00     0.0140     721.61     720.49     0          0

[XSECTIONS]
;;Link           Shape        Geom1      Geom2      Geom3      Geom4      Barrels
;;-------------- ------------ ---------- ---------- ---------- ---------- ----------
755              CIRCULAR     3.00       0          0          0          1
756              CIRCULAR     2.50       0          0          0          1
757              CIRCULAR     2.50       0          0          0          1
758              CIRCULAR     2.50       0          0          0          1
759              CIRCULAR     2.00       0          0          0          1
760              CIRCULAR     2.00       0          0          0          1
762              CIRCULAR     2.50       0          0          0          1
763              CIRCULAR     3.00       0          0          0          1
764              CIRCULAR     3.00       0          0          0          1
765              CIRCULAR     3.50       0          0          0          1
766              CIRCULAR     3.00       0          0          0          1
767              CIRCULAR     4.00       0          0          0          1
768              CIRCULAR     4.00       0          0          0          1
769              CIRCULAR     4.00       0          0          0          1
770              CIRCULAR     4.00       0          0          0          1
771              CIRCULAR     1.75       0          0          0          1
772              CIRCULAR     2.00       0          0          0          1
773              CIRCULAR     1.00       0          0          0          1
774              CIRCULAR     1.00       0          0          0          1
775              CIRCULAR     2.00       0          0          0          1
776              CIRCULAR     2.25       0          0          0          1
777              CIRCULAR     2.25       0          0          0          1
778              CIRCULAR     2.25       0          0          0          1
779              CIRCULAR     1.25       0          0          0          1
780              CIRCULAR     1.25       0          0          0          1
781              CIRCULAR     2.25       0          0          0          1
782              CIRCULAR     2.25       0          0          0          1
783              CIRCULAR     2.25       0          0          0          1
784              CIRCULAR     1.25       0          0          0          1
785              CIRCULAR     1.50       0          0          0          1
786              CIRCULAR     1.50       0          0          0          1
787              CIRCULAR     1.50       0          0          0          1
788              CIRCULAR     3.00       0          0          0          1
789              CIRCULAR     1.25       0          0          0          1
790              CIRCULAR     1.50       0          0          0          1
791              CIRCULAR     3.00       0          0          0          1
792              CIRCULAR     2.25       0          0          0          1
793              CIRCULAR     0.83       0          0          0          1
794              CIRCULAR     2.25       0          0          0          1
795              CIRCULAR     2.25       0          0          0          1
796              CIRCULAR     0.83       0          0          0          1
797              CIRCULAR     1.75       0          0          0          1
798              CIRCULAR     1.75       0          0          0          1
799              CIRCULAR     1.50       0          0          0          1
800              CIRCULAR     1.00       0          0          0          1
801              CIRCULAR     1.50       0          0          0          1
802              CIRCULAR     1.50       0          0          0          1
803              CIRCULAR     1.00       0          0          0          1
804              CIRCULAR     1.25       0          0          0          1
805              CIRCULAR     1.25       0          0          0          1
806              CIRCULAR     1.25       0          0          0          1
807              CIRCULAR     1.50       0          0          0          1
808              CIRCULAR     1.50       0          0          0          1
809              CIRCULAR     1.75       0          0          0          1
810              CIRCULAR     1.75       0          0          0          1
811              CIRCULAR     2.00       0          0          0          1
812              CIRCULAR     2.00       0          0          0          1
813              CIRCULAR     2.50       0          0          0          1
814              CIRCULAR     2.00       0          0          0          1
815              CIRCULAR     2.50       0          0          0          1
816              CIRCULAR     2.50       0          0          0          1
817              CIRCULAR     2.00       0          0          0          1
818              CIRCULAR     4.00       0          0          0          1
819              CIRCULAR     4.00       0          0          0          1
820              CIRCULAR     4.00       0          0          0          1
822              CIRCULAR     0.83       0          0          0          1
823              CIRCULAR     0.83       0          0          0          1
824              CIRCULAR     1.00       0          0          0          1
825              CIRCULAR     3.00       0          0          0          1
826              CIRCULAR     1.00       0          0          0          1
827              CIRCULAR     1.00       0          0          0          1
828              CIRCULAR     1.25       0          0          0          1
829              CIRCULAR     1.50       0          0          0          1
830              CIRCULAR     1.25       0          0          0          1
831              CIRCULAR     1.50       0          0          0          1
832              CIRCULAR     1.25       0          0          0          1
833              CIRCULAR     2.50       0          0          0          1
957              CIRCULAR     2.50       0          0          0          1
971              CIRCULAR     0.83       0          0          0          1
972              CIRCULAR     1.00       0          0          0          1
973              CIRCULAR     1.25       0          0          0          1
974              CIRCULAR     1.00       0          0          0          1
975              CIRCULAR     1.25       0          0          0          1
976              CIRCULAR     0.83       0          0          0          1
977              CIRCULAR     1.50       0          0          0          1
978              CIRCULAR     0.83       0          0          0          1
979              CIRCULAR     1.00       0          0          0          1
980              CIRCULAR     1.00       0          0          0          1
981              CIRCULAR     1.25       0          0          0          1
982              CIRCULAR     1.50       0          0          0          1
996              CIRCULAR     1.50       0          0          0          1
759              CIRCULAR     1.50       0          0          0          1
998              CIRCULAR     1.50       0          0          0          1
999              CIRCULAR     1.75       0          0          0          1
1003FHC05007C    CIRCULAR     3.00       0          0          0          1
1005FHC056025C   CIRCULAR     1.75       0          0          0          1

[LOSSES]
;;Link           Inlet      Outlet     Average    Flap Gate
;;-------------- ---------- ---------- ---------- ----------
755              0          0          0          NO
756              0          0          0          NO
757              0          0          0          NO
758              0          0          0          NO
759              0          0          0          NO
760              0          0          0          NO
762              0          0          0          NO
763              0          0          0          NO
764              0          0          0          NO
765              0          0          0          NO
766              0          0          0          NO
767              0          0          0          NO
768              0          0          0          NO
769              0          0          0          NO
770              0          0          0          NO
771              0          0          0          NO
772              0          0          0          NO
773              0          0          0          NO
774              0          0          0          NO
775              0          0          0          NO
776              0          0          0          NO
777              0          0          0          NO
778              0          0          0          NO
779              0          0          0          NO
780              0          0          0          NO
781              0          0          0          NO
782              0          0          0          NO
783              0          0          0          NO
784              0          0          0          NO
785              0          0          0          NO
786              0          0          0          NO
787              0          0          0          NO
788              0          0          0          NO
789              0          0          0          NO
790              0          0          0          NO
791              0          0          0          NO
792              0          0          0          NO
793              0          0          0          NO
794              0          0          0          NO
795              0          0          0          NO
796              0          0          0          NO
797              0          0          0          NO
798              0          0          0          NO
799              0          0          0          NO
800              0          0          0          NO
801              0          0          0          NO
802              0          0          0          NO
803              0          0          0          NO
804              0          0          0          NO
805              0          0          0          NO
806              0          0          0          NO
807              0          0          0          NO
808              0          0          0          NO
809              0          0          0          NO
810              0          0          0          NO
811              0          0          0          NO
812              0          0          0          NO
813              0          0          0          NO
814              0          0          0          NO
815              0          0          0          NO
816              0          0          0          NO
817              0          0          0          NO
818              0          0          0          NO
819              0          0          0          NO
820              0          0          0          NO
822              0          0          0          NO
823              0          0          0          NO
824              0          0          0          NO
825              0          0          0          NO
826              0          0          0          NO
827              0          0          0          NO
828              0          0          0          NO
829              0          0          0          NO
830              0          0          0          NO
831              0          0          0          NO
832              0          0          0          NO
833              0          0          0          NO
957              0          0          0          NO
971              0          0          0          NO
972              0          0          0          NO
973              0          0          0          NO
974              0          0          0          NO
975              0          0          0          NO
976              0          0          0          NO
977              0          0          0          NO
978              0          0          0          NO
979              0          0          0          NO
980              0          0          0          NO
981              0          0          0          NO
982              0          0          0          NO
996              0          0          0          NO
759              0          0          0          NO
998              0          0          0          NO