;; SWMM5 .inp converted from XPSWMM .xp file
;; Generated by XPSWMM Card Reader
;; Source format: XP_CARD | Original title: (none)

[TITLE]
;;Project Title/Notes
Converted from XPSWMM .xp file

[OPTIONS]
FLOW_UNITS           CMS
INFILTRATION         HORTON
FLOW_ROUTING         DYNWAVE
LINK_OFFSETS         DEPTH
MIN_SLOPE            0.0
ALLOW_PONDING        NO
SKIP_STEADY_STATE    NO
ROUTING_STEP         00:00:01
VARIABLE_STEP        0.75
INERTIAL_DAMPING     PARTIAL
NORMAL_FLOW_LIMITED  BOTH
MAX_TRIALS           50
HEAD_TOLERANCE       .001

[JUNCTIONS]
;;Name           Elev       MaxDepth   InitDepth  SurDepth   Aponded
;;-------------- ---------- ---------- ---------- ---------- ----------
1                1020.00    0          4.65       0          0
2                1020.00    0          5.24       0          0
3                1020.00    0          5.84       0          0
4                1025.00    0          6.44       0          0
5                1025.00    0          8.63       0          0
6                1025.00    0          10.43      0          0
7                1025.00    0          12.22      0          0
8                1025.00    0          14.05      0          0
9                1025.00    0          15.82      0          0
10               1025.00    0          17.61      0          0
11               1025.00    0          19.41      0          0
12               1025.00    0          21.20      0          0
15               1125.00    0          0          0          0
16               1125.00    0          0          0          0
17               1125.00    0          0          0          0
18               1123.27    0          0          0          0
19               1123.37    0          0          0          0
20               1123.37    0          0          0          0
21               1123.37    0          0          0          0
22               1123.37    0          0          0          0
50               1258.00    0          0          0          0
51               1258.00    0          0          0          0
52               1258.00    0          0          0          0
53               1258.00    0          0          0          0
54               1258.00    0          0          0          0
56               1258.00    0          0          0          0
57               1258.00    0          0          0          0
58               1258.00    0          0          0          0
59               1258.00    0          0          0          0
60               1258.00    0          0          0          0
61               1258.00    0          0          0          0
62               1258.00    0          0          0          0
77               1258.00    0          0          0          0
78               1258.00    0          0          0          0
79               1258.00    0          0          0          0
83               1258.00    0          0          0          0
84               1258.00    0          0          0          0
85               1258.00    0          0          0          0
86               1258.00    0          0          0          0
87               1258.00    0          0          0          0
88               1258.00    0          0          0          0
89               1258.00    0          0          0          0
90               1258.00    0          0          0          0
91               1258.00    0          0          0          0
92               1258.00    0          0          0          0
93               1258.00    0          0          0          0
94               1258.00    0          0          0          0
95               1258.00    0          0          0          0
96               1258.00    0          0          0          0
97               1258.00    0          0          0          0
98               1258.00    0          0          0          0
99               1248.00    0          0          0          0
117              1248.00    0          0          0          0
118              1248.00    0          0          0          0
119              1248.00    0          0          0          0
120              1248.00    0          0          0          0
121              1248.00    0          0          0          0
122              1248.00    0          0          0          0
123              1248.00    0          0          0          0
124              1248.00    0          0          0          0
125              1248.00    0          0          0          0
126              1248.00    0          0          0          0
127              1248.00    0          0          0          0
128              1248.00    0          0          0          0
129              1248.00    0          0          0          0
143              1248.00    0          0          0          0
145              1248.00    0          0          0          0
146              1248.00    0          0          0          0
147              1248.00    0          0          0          0
148              1248.00    0          0          0          0
149              1248.00    0          0          0          0
150              1248.00    0          0          0          0
151              1248.00    0          0          0          0
152              1248.00    0          0          0          0
153              1248.00    0          0          0          0
163              1248.00    0          0          0          0
165              1248.00    0          0          0          0
167              1248.00    0          0          0          0
168              1248.00    0          0          0          0
169              1248.00    0          0          0          0
170              1248.00    0          0          0          0
171              1248.00    0          0          0          0
172              1248.00    0          0          0          0
173              1248.00    0          0          0          0
174              1248.00    0          0          0          0
175              1248.00    0          0          0          0
176              1248.00    0          0          0          0
187              1248.00    0          0          0          0
189              1248.00    0          0          0          0
190              1248.00    0          0          0          0
191              1248.00    0          0          0          0
192              1248.00    0          0          0          0
193              1248.00    0          0          0          0
194              1248.00    0          0          0          0
195              1248.00    0          0          0          0
196              1248.00    0          0          0          0
197              1248.00    0          0          0          0
198              1248.00    0          0          0          0
199              1248.00    0          0          0          0
200              1248.00    0          0          0          0
201              1248.00    0          0          0          0
202              1248.00    0          0          0          0
203              1248.00    0          0          0          0
204              1248.00    0          0          0          0
205              1248.00    0          0          0          0
206              1248.00    0          0          0          0
207              1248.00    0          0          0          0
208              1248.00    0          0          0          0
209              1248.00    0          0          0          0
210              1248.00    0          0          0          0
211              1248.00    0          0          0          0
212              1248.00    0          0          0          0
213              1248.00    0          0          0          0
214              1248.00    0          0          0          0
215              1248.00    0          0          0          0
216              1248.00    0          0          0          0
217              1248.00    0          0          0          0
218              1248.00    0          0          0          0
219              1248.00    0          0          0          0
220              1248.00    0          0          0          0
221              1248.00    0          0          0          0
222              1248.00    0          0          0          0
223              1248.00    0          0          0          0
224              1248.00    0          0          0          0
225              1248.00    0          0          0          0
226              1248.00    0          0          0          0
227              1248.00    0          0          0          0
228              1248.00    0          0          0          0
229              1248.00    0          0          0          0
230              1248.00    0          0          0          0
231              1248.00    0          0          0          0
232              1248.00    0          0          0          0
233              1248.00    0          0          0          0
234              1248.00    0          0          0          0
235              1248.00    0          0          0          0
236              1248.00    0          0          0          0
285              1248.00    0          0          0          0
286              1248.00    0          0          0          0
287              1248.00    0          0          0          0
291              1248.00    0          0          0          0
292              1248.00    0          0          0          0
293              1248.00    0          0          0          0
294              1248.00    0          0          0          0
295              1248.00    0          0          0          0
296              1248.00    0          0          0          0
297              1248.00    0          0          0          0
298              1248.00    0          0          0          0
299              1248.00    0          0          0          0
300              1248.00    0          0          0          0
301              1248.00    0          0          0          0
304              1318.88    0          0          0          0
305              1318.88    0          0          0          0
306              1318.88    0          0          0          0
307              1318.88    0          0          0          0
308              1318.88    0          0          0          0
309              1318.88    0          0          0          0
310              1318.88    0          0          0          0
311              1318.88    0          0          0          0
312              1318.88    0          0          0          0
313              1318.88    0          0          0          0
314              1318.88    0          0          0          0
315              1318.88    0          0          0          0
316              1318.88    0          0          0          0
317              1318.88    0          0          0          0
318              1318.88    0          0          0          0

[STORAGE]
;;Name           Elev       MaxDepth   InitDepth  Shape      Curve/Params
;;-------------- ---------- ---------- ---------- ---------- ----------
13               980.80     0          23.00      FUNCTIONAL 113.10 0          0
14               1125.00    -1.73      0          FUNCTIONAL 113.10 0          0
23               1139.24    0          0          FUNCTIONAL 113.10 0          0
46               1258.00    0          0          FUNCTIONAL 201.06 0          0
47               1258.00    -12.00     0          FUNCTIONAL 24.63 0          0
55               1258.00    -12.00     0          FUNCTIONAL 24.63 0          0
302              1266.00    0          0          FUNCTIONAL 113.10 0          0
303              1318.88    0          0          FUNCTIONAL 113.10 0          0

[CONDUITS]
;;Name           From             To               Length     Roughness  InOffset   OutOffset  InitFlow   MaxFlow
;;-------------- ---------------- ---------------- ---------- ---------- ---------- ---------- ---------- ----------
24               1                2                70.30      0.0140     948.35     947.76     0          0
25               2                3                70.45      0.0140     947.76     947.16     0          0
26               3                4                70.45      0.0140     947.16     946.56     0          0
27               4                5                122.00     0.0140     946.56     944.37     0          0
28               5                6                100.00     0.0140     944.37     942.57     0          0
29               6                7                100.00     0.0140     942.57     940.78     0          0
30               7                8                100.00     0.0140     940.78     938.98     0          0
31               8                9                100.00     0.0140     938.98     937.18     0          0
32               9                10               100.00     0.0140     937.18     935.39     0          0
33               10               11               100.00     0.0140     935.39     933.59     0          0
34               11               12               100.00     0.0140     933.59     931.80     0          0
35               12               13               100.00     0.0140     931.80     930.00     0          0
37               14               15               209.81     0.0140     1077.40    1075.71    0          0
38               15               16               209.81     0.0140     1075.71    1074.02    0          0
39               16               17               209.81     0.0140     1074.02    1072.33    0          0
40               17               18               209.81     0.0140     1072.33    1070.64    0          0
41               18               19               209.81     0.0140     1070.64    1068.95    0          0
42               19               20               209.81     0.0140     1068.95    1067.27    0          0
43               20               21               209.81     0.0140     1067.27    1065.58    0          0
44               21               22               209.81     0.0140     1065.58    1063.89    0          0
45               22               23               209.81     0.0140     1063.89    1062.20    0          0
49               46               47               321.85     0.0140     1227.20    1226.88    0          0
63               47               50               250.00     0.0140     1240.00    1240.13    0          0
64               50               51               255.05     0.0140     1240.13    1240.25    0          0
65               51               52               346.00     0.0140     1240.25    1240.42    0          0
66               52               53               222.75     0.0140     1240.42    1240.54    0          0
67               53               54               222.75     0.0140     1240.54    1240.65    0          0
68               55               56               250.48     0.0140     1240.00    1240.13    0          0
69               56               57               300.95     0.0140     1240.13    1240.28    0          0
70               57               58               300.95     0.0140     1240.28    1240.42    0          0
71               58               59               90.00      0.0140     1240.42    1240.47    0          0
72               59               60               173.13     0.0140     1240.47    1240.56    0          0
73               60               61               173.13     0.0140     1240.56    1240.64    0          0
74               50               56               42.30      0.0140     1240.13    1240.13    0          0
75               52               58               80.00      0.0140     1240.42    1240.42    0          0
76               59               62               358.19     0.0140     1240.47    1240.65    0          0
80               55               77               200.00     0.0140     1235.81    1235.67    0          0
81               77               78               200.00     0.0140     1235.67    1235.54    0          0
82               78               79               200.00     0.0140     1235.54    1235.40    0          0
100              79               83               200.00     0.0140     1235.40    1235.27    0          0
101              83               84               200.00     0.0140     1235.27    1235.13    0          0
102              84               85               200.00     0.0140     1235.13    1235.00    0          0
103              85               86               200.00     0.0140     1235.50    1235.37    0          0
104              86               87               200.00     0.0140     1235.37    1235.23    0          0
105              87               88               200.00     0.0140     1235.23    1235.10    0          0
106              88               89               200.00     0.0140     1235.10    1234.96    0          0
107              89               90               200.00     0.0140     1234.96    1234.83    0          0
108              90               91               200.00     0.0140     1234.83    1234.70    0          0
109              91               92               200.00     0.0140     1234.70    1234.56    0          0
110              92               93               200.00     0.0140     1234.56    1234.43    0          0
111              93               94               200.00     0.0140     1234.43    1234.30    0          0
112              94               95               200.00     0.0140     1234.30    1234.16    0          0
113              95               96               200.00     0.0140     1234.16    1234.03    0          0
114              96               97               200.00     0.0140     1234.03    1233.89    0          0
115              97               98               200.00     0.0140     1233.89    1233.76    0          0
116              98               99               200.00     0.0140     1233.76    1233.63    0          0
130              99               117              200.00     0.0140     1233.63    1233.49    0          0
131              117              118              200.00     0.0140     1233.49    1233.36    0          0
132              118              119              200.00     0.0140     1233.36    1233.22    0          0
133              119              120              200.00     0.0140     1233.22    1233.09    0          0
134              120              121              200.00     0.0140     1233.09    1232.95    0          0
135              121              122              200.00     0.0140     1232.95    1232.82    0          0
136              122              123              200.00     0.0140     1232.82    1232.69    0          0
137              123              124              200.00     0.0140     1232.69    1232.55    0          0
138              124              125              200.00     0.0140     1232.55    1232.42    0          0
139              125              126              200.00     0.0140     1232.42    1232.29    0          0
140              126              127              200.00     0.0140     1232.29    1232.15    0          0
141              127              128              200.00     0.0140     1232.15    1232.02    0          0
142              128              129              200.00     0.0140     1232.02    1231.88    0          0
144              129              143              200.00     0.0140     1232.02    1231.88    0          0
154              143              145              200.00     0.0140     1231.88    1231.75    0          0
155              145              146              200.00     0.0140     1231.75    1231.62    0          0
156              146              147              200.00     0.0140     1231.62    1231.48    0          0
157              147              148              200.00     0.0140     1231.48    1231.35    0          0
158              148              149              200.00     0.0140     1231.35    1231.21    0          0
159              149              150              200.00     0.0140     1231.21    1231.08    0          0
160              150              151              200.00     0.0140     1231.08    1230.94    0          0
161              151              152              200.00     0.0140     1230.94    1230.81    0          0
162              152              153              200.00     0.0140     1230.81    1230.68    0          0
164              153              163              373.48     0.0140     1230.68    1230.43    0          0
166              163              165              68.00      0.0140     1230.43    1230.38    0          0
177              165              167              267.30     0.0140     1230.38    1230.20    0          0
178              167              168              267.30     0.0140     1230.20    1230.03    0          0
179              168              169              267.30     0.0140     1230.03    1229.85    0          0
180              169              170              267.30     0.0140     1229.85    1229.67    0          0
181              170              171              267.30     0.0140     1229.67    1229.49    0          0
182              171              172              267.30     0.0140     1229.49    1229.31    0          0
183              172              173              267.30     0.0140     1229.31    1229.13    0          0
184              173              174              267.30     0.0140     1229.13    1228.96    0          0
185              174              175              267.30     0.0140     1228.96    1228.78    0          0
186              175              176              267.30     0.0140     1228.78    1228.60    0          0
188              176              187              90.00      0.0140     1228.60    1228.54    0          0
237              187              189              253.58     0.0140     1228.54    1228.37    0          0
238              189              190              253.58     0.0140     1228.37    1228.20    0          0
239              190              191              253.58     0.0140     1228.20    1228.03    0          0
240              191              192              253.58     0.0140     1228.03    1227.86    0          0
241              192              193              253.58     0.0140     1227.86    1227.69    0          0
242              193              194              253.58     0.0140     1227.69    1227.53    0          0
243              194              195              253.58     0.0140     1227.53    1227.36    0          0
244              195              196              253.58     0.0140     1227.36    1227.19    0          0
245              196              197              253.58     0.0140     1227.19    1227.02    0          0
246              197              198              253.58     0.0140     1227.02    1226.85    0          0
247              198              199              253.58     0.0140     1226.85    1226.68    0          0
248              199              200              253.58     0.0140     1226.68    1226.51    0          0
249              200              201              253.58     0.0140     1226.51    1226.34    0          0
250              201              202              253.58     0.0140     1226.34    1226.17    0          0
251              202              203              253.58     0.0140     1226.17    1226.01    0          0
252              203              204              253.58     0.0140     1226.01    1225.84    0          0
253              204              205              253.58     0.0140     1225.84    1225.67    0          0
254              205              206              253.58     0.0140     1225.67    1225.50    0          0
255              206              207              253.58     0.0140     1225.50    1225.33    0          0
256              207              208              253.58     0.0140     1225.33    1225.16    0          0
257              208              209              253.58     0.0140     1225.16    1224.99    0          0
258              209              210              253.58     0.0140     1224.99    1224.82    0          0
259              210              211              253.58     0.0140     1224.82    1224.65    0          0
260              211              212              253.58     0.0140     1224.65    1224.48    0          0
261              212              213              253.58     0.0140     1224.48    1224.31    0          0
262              213              214              253.58     0.0140     1224.31    1224.14    0          0
263              214              215              253.58     0.0140     1224.14    1223.98    0          0
264              215              216              253.58     0.0140     1223.98    1223.81    0          0
265              216              217              253.58     0.0140     1223.81    1223.64    0          0
266              217              218              253.58     0.0140     1223.64    1223.47    0          0
267              218              219              253.58     0.0140     1223.47    1223.30    0          0
268              219              220              253.58     0.0140     1223.30    1223.13    0          0
269              220              221              253.58     0.0140     1223.13    1222.96    0          0
270              221              222              253.58     0.0140     1222.96    1222.79    0          0
271              222              223              253.58     0.0140     1222.79    1222.62    0          0
272              223              224              253.58     0.0140     1222.62    1222.45    0          0
273              224              225              253.58     0.0140     1222.45    1222.29    0          0
274              225              226              253.58     0.0140     1222.29    1222.12    0          0
275              226              227              253.58     0.0140     1222.12    1221.95    0          0
276              227              228              253.58     0.0140     1221.95    1221.78    0          0
277              228              229              253.58     0.0140     1221.78    1221.61    0          0
278              229              230              253.58     0.0140     1221.61    1221.44    0          0
279              230              231              253.58     0.0140     1221.44    1221.27    0          0
280              231              232              253.58     0.0140     1221.27    1221.10    0          0
281              232              233              253.58     0.0140     1221.10    1220.93    0          0
282              233              234              253.58     0.0140     1220.93    1220.76    0          0
283              234              235              253.58     0.0140     1220.76    1220.60    0          0
284              235              236              253.58     0.0140     1220.60    1220.43    0          0
288              236              285              335.00     0.0140     1220.43    1220.20    0          0
289              285              286              217.00     0.0140     1220.20    1220.06    0          0
290              286              287              57.00      0.0140     1220.06    1220.02    0          0
320              287              291              79.97      0.0140     1220.02    1219.97    0          0
321              291              292              300.00     0.0140     1219.97    1219.77    0          0
322              292              293              700.00     0.0140     1219.77    1219.30    0          0
323              293              294              700.00     0.0140     1219.30    1218.83    0          0
324              294              295              700.00     0.0140     1218.83    1218.37    0          0
325              295              296              700.00     0.0140     1218.37    1217.90    0          0
326              296              297              700.00     0.0140     1217.90    1217.43    0          0
327              297              298              700.00     0.0140     1217.43    1216.97    0          0
328              298              299              700.00     0.0140     1216.97    1216.50    0          0
329              299              300              700.00     0.0140     1216.50    1216.03    0          0
330              300              301              700.00     0.0140     1216.03    1215.57    0          0
331              301              302              700.00     0.0140     1215.57    1215.10    0          0
333              303              304              667.00     0.0140     1288.87    1288.43    0          0
334              304              305              667.00     0.0140     1288.43    1287.98    0          0
335              305              306              667.00     0.0140     1287.98    1287.54    0          0
336              306              307              667.00     0.0140     1287.54    1287.09    0          0
337              307              308              667.00     0.0140     1287.09    1286.65    0          0
338              308              309              667.00     0.0140     1286.65    1286.20    0          0
339              309              310              667.00     0.0140     1286.20    1285.76    0          0
340              310              311              667.00     0.0140     1285.76    1285.32    0          0
341              311              312              667.00     0.0140     1285.32    1284.87    0          0
342              312              313              667.00     0.0140     1284.87    1284.43    0          0