;; SWMM5 .inp converted from XPSWMM .xp file
;; Generated by XPSWMM Card Reader
;; Source format: XP_CARD | Original title: Village of Whitefish Bay SSES

[TITLE]
;;Project Title/Notes
Village of Whitefish Bay SSES

[OPTIONS]
FLOW_UNITS           CFS
INFILTRATION         HORTON
FLOW_ROUTING         DYNWAVE
LINK_OFFSETS         DEPTH
MIN_SLOPE            0.0
ALLOW_PONDING        NO
SKIP_STEADY_STATE    NO
ROUTING_STEP         00:00:300
VARIABLE_STEP        0.75
INERTIAL_DAMPING     PARTIAL
NORMAL_FLOW_LIMITED  BOTH
MAX_TRIALS           100
HEAD_TOLERANCE       0.0033

[JUNCTIONS]
;;Name           Elev       MaxDepth   InitDepth  SurDepth   Aponded
;;-------------- ---------- ---------- ---------- ---------- ----------
1                135.00     0          0          0          0
2                136.00     0          0          0          0
3                135.00     0          0          0          0
4                132.00     0          0          0          0
5                97.57      0          0          0          0
6                132.00     0          0          0          0
7                96.16      0          0          0          0
8                129.00     0          0          0          0
9                87.86      0          0          0          0
10               126.00     0          0          0          0
11               87.92      0          0          0          0
12               125.00     0          0          0          0
13               115.00     0          0          0          0
14               95.39      0          0          0          0
15               119.00     0          0          0          0
16               83.72      0          0          0          0
17               119.00     0          0          0          0
18               113.00     0          0          0          0
19               93.43      0          0          0          0
20               108.00     0          0          0          0
21               78.87      0          0          0          0
22               78.00      0          0          0          0
23               77.07      0          0          0          0
24               76.26      0          0          0          0
25               114.00     0          0          0          0
26               120.52     0          0          0          0
27               73.00      0          0          0          0
28               73.00      0          0          0          0
29               97.00      0          0          0          0
30               85.00      0          0          0          0
31               77.00      0          0          0          0
32               112.10     0          0          0          0
33               96.00      0          0          0          0
34               77.00      0          0          0          0
35               88.00      0          0          0          0
37               81.00      0          0          0          0
38               105.00     0          0          0          0
39               78.00      0          0          0          0
40               87.00      0          0          0          0
41               108.20     0          0          0          0
42               87.00      0          0          0          0
43               87.00      0          0          0          0
44               99.19      0          0          0          0
45               69.00      0          0          0          0
46               72.00      0          0          0          0
47               78.00      0          0          0          0
48               72.00      0          0          0          0
49               74.00      0          0          0          0
50               96.00      0          0          0          0
51               90.00      0          0          0          0
52               80.00      0          0          0          0
53               80.00      0          0          0          0
54               74.00      0          0          0          0
55               73.00      0          0          0          0
56               77.00      0          0          0          0
57               70.00      0          0          0          0
58               67.00      0          0          0          0
59               70.00      0          0          0          0
60               77.00      0          0          0          0
61               85.00      0          0          0          0
62               83.27      0          0          0          0
63               80.00      0          0          0          0
64               79.00      0          0          0          0
65               80.00      0          0          0          0
66               78.50      0          0          0          0
67               78.50      0          0          0          0
68               97.00      0          0          0          0
69               79.00      0          0          0          0
70               79.00      0          0          0          0
71               78.00      0          0          0          0
72               65.00      0          0          0          0
73               74.00      0          0          0          0
74               66.00      0          0          0          0
75               68.00      0          0          0          0
76               69.00      0          0          0          0
77               67.00      0          0          0          0
78               74.00      0          0          0          0
79               75.00      0          0          0          0
80               77.00      0          0          0          0
81               76.00      0          0          0          0
82               79.50      0          0          0          0
83               64.00      0          0          0          0
84               64.00      0          0          0          0
85               62.46      0          0          0          0
86               78.00      0          0          0          0
87               76.71      0          0          0          0
88               70.90      0          0          0          0
89               70.91      0          0          0          0
90               73.88      0          0          0          0
91               74.11      0          0          0          0
92               66.30      0          0          0          0
93               66.23      0          0          0          0
94               68.43      0          0          0          0
95               67.21      0          0          0          0
96               65.11      0          0          0          0
97               65.11      0          0          0          0
98               64.93      0          0          0          0
99               78.00      0          0          0          0
100              67.00      0          0          0          0
101              78.00      0          0          0          0
102              71.00      0          0          0          0
103              80.50      0          0          0          0
104              77.00      0          0          0          0
105              64.00      0          0          0          0
106              69.00      0          0          0          0
107              64.00      0          0          0          0
108              79.50      0          0          0          0
109              73.00      0          0          0          0
110              67.00      0          0          0          0
111              65.00      0          0          0          0
112              84.00      0          0          0          0
113              84.00      0          0          0          0
114              81.00      0          0          0          0
115              86.00      0          0          0          0
116              81.00      0          0          0          0
117              72.00      0          0          0          0
118              81.00      0          0          0          0
119              83.00      0          0          0          0
120              83.00      0          0          0          0
121              71.00      0          0          0          0
122              64.00      0          0          0          0
123              64.00      0          0          0          0
124              63.00      0          0          0          0
125              85.00      0          0          0          0
126              86.00      0          0          0          0
127              85.00      0          0          0          0
128              71.00      0          0          0          0
129              82.00      0          0          0          0
130              66.00      0          0          0          0
131              83.00      0          0          0          0
132              85.00      0          0          0          0
133              87.00      0          0          0          0
134              69.00      0          0          0          0
135              72.00      0          0          0          0
136              71.00      0          0          0          0
137              66.00      0          0          0          0
138              81.00      0          0          0          0
139              83.00      0          0          0          0
140              95.00      0          0          0          0
141              84.00      0          0          0          0
142              84.00      0          0          0          0
143              81.00      0          0          0          0
144              71.00      0          0          0          0
145              74.00      0          0          0          0
146              70.00      0          0          0          0
147              67.00      0          0          0          0
148              64.00      0          0          0          0
149              80.00      0          0          0          0
150              80.00      0          0          0          0
151              77.00      0          0          0          0
152              99.00      0          0          0          0
153              70.00      0          0          0          0
154              97.00      0          0          0          0
155              81.00      0          0          0          0
156              83.00      0          0          0          0
157              97.00      0          0          0          0
158              93.00      0          0          0          0
159              80.00      0          0          0          0
160              95.00      0          0          0          0
161              63.00      0          0          0          0
162              77.00      0          0          0          0
163              66.00      0          0          0          0
164              73.00      0          0          0          0
165              67.50      0          0          0          0
166              68.00      0          0          0          0
167              99.00      0          0          0          0
168              70.00      0          0          0          0
169              78.00      0          0          0          0
170              98.50      0          0          0          0
171              95.00      0          0          0          0
172              94.00      0          0          0          0
173              90.00      0          0          0          0
174              87.00      0          0          0          0
175              83.00      0          0          0          0
176              80.00      0          0          0          0
177              76.00      0          0          0          0
178              77.00      0          0          0          0
179              69.00      0          0          0          0
180              74.00      0          0          0          0
181              71.00      0          0          0          0
182              68.00      0          0          0          0
183              66.00      0          0          0          0
184              68.00      0          0          0          0
185              91.00      0          0          0          0
186              74.00      0          0          0          0
187              69.00      0          0          0          0
188              89.00      0          0          0          0
189              85.00      0          0          0          0
190              75.00      0          0          0          0
191              81.00      0          0          0          0
192              83.00      0          0          0          0
193              76.00      0          0          0          0
194              72.00      0          0          0          0
195              73.00      0          0          0          0
196              72.00      0          0          0          0
197              69.00      0          0          0          0
198              71.00      0          0          0          0
199              71.00      0          0          0          0
200              67.00      0          0          0          0
201              66.00      0          0          0          0
202              65.00      0          0          0          0
203              63.00      0          0          0          0
204              90.00      0          0          0          0
205              71.00      0          0          0          0
206              66.00      0          0          0          0
207              66.00      0          0          0          0
208              71.00      0          0          0          0
209              87.00      0          0          0          0
210              68.00      0          0          0          0
211              70.00      0          0          0          0
212              64.00      0          0          0          0
213              75.00      0          0          0          0
214              70.00      0          0          0          0
215              84.00      0          0          0          0
216              72.00      0          0          0          0
217              69.00      0          0          0          0
218              79.00      0          0          0          0
219              81.00      0          0          0          0
220              68.50      0          0          0          0
221              69.00      0          0          0          0
222              68.00      0          0          0          0
223              68.00      0          0          0          0
224              68.00      0          0          0          0
225              67.00      0          0          0          0
226              65.00      0          0          0          0
227              66.00      0          0          0          0
228              64.00      0          0          0          0
229              86.00      0          0          0          0
230              70.00      0          0          0          0
231              71.00      0          0          0          0
232              67.00      0          0          0          0
233              73.00      0          0          0          0
234              86.00      0          0          0          0
235              82.00      0          0          0          0
236              81.00      0          0          0          0
237              82.00      0          0          0          0
238              72.00      0          0          0          0
239              71.00      0          0          0          0
240              70.00      0          0          0          0
241              69.00      0          0          0          0
242              81.00      0          0          0          0
243              80.00      0          0          0          0
244              75.00      0          0          0          0
245              68.00      0          0          0          0
246              75.00      0          0          0          0
247              63.00      0          0          0          0
248              67.00      0          0          0          0
249              64.00      0          0          0          0
250              67.00      0          0          0          0
251              65.00      0          0          0          0
252              63.00      0          0          0          0
253              65.00      0          0          0          0
254              66.00      0          0          0          0
255              75.00      0          0          0          0
256              86.00      0          0          0          0
257              64.00      0          0          0          0
258              65.00      0          0          0          0
259              64.00      0          0          0          0
260              86.00      0          0          0          0
261              86.00      0          0          0          0
262              69.00      0          0          0          0
263              69.00      0          0          0          0
264              68.00      0          0          0          0
265              65.00      0          0          0          0
266              86.00      0          0          0          0
267              85.00      0          0          0          0
268              83.00      0          0          0          0
269              80.00      0          0          0          0
270              72.00      0          0          0          0
271              73.00      0          0          0          0
272              74.00      0          0          0          0
273              63.00      0          0          0          0
274              72.00      0          0          0          0
275              85.00      0          0          0          0
276              63.00      0          0          0          0
277              86.00      0          0          0          0
278              64.00      0          0          0          0
279              85.00      0          0          0          0
280              68.00      0          0          0          0
281              68.00      0          0          0          0
282              65.00      0          0          0          0
283              67.00      0          0          0          0
284              85.50      0          0          0          0
285              84.00      0          0          0          0
286              62.00      0          0          0          0
287              70.00      0          0          0          0
288              77.00      0          0          0          0
289              75.00      0          0          0          0
290              76.00      0          0          0          0
291              74.00      0          0          0          0
292              71.00      0          0          0          0
293              62.00      0          0          0          0
294              83.50      0          0          0          0
295              84.00      0          0          0          0
296              63.00      0          0          0          0
297              68.00      0          0          0          0
298              64.00      0          0          0          0
299              67.00      0          0          0          0
300              83.00      0          0          0          0
301              69.00      0          0          0          0
302              66.00      0          0          0          0
303              83.50      0          0          0          0
304              83.00      0          0          0          0
305              71.00      0          0          0          0
306              73.00      0          0          0          0
307              89.00      0          0          0          0
308              73.00      0          0          0          0
309              69.00      0          0          0          0
310              68.00      0          0          0          0
311              66.00      0          0          0          0
312              68.00      0          0          0          0
313              72.00      0          0          0          0
314              65.00      0          0          0          0
315              66.00      0          0          0          0
316              70.00      0          0          0          0
317              63.00      0          0          0          0
318              62.00      0          0          0          0
319              61.00      0          0          0          0
320              61.00      0          0          0          0
321              56.00      0          0          0          0
322              69.00      0          0          0          0
323              83.50      0          0          0          0
324              84.00      0          0          0          0
325              68.00      0          0          0          0
326              66.00      0          0          0          0
327              63.00      0          0          0          0
328              68.00      0          0          0          0
329              68.00      0          0          0          0
330              61.00      0          0          0          0
331              83.00      0          0          0          0
332              63.00      0          0          0          0
333              83.50      0          0          0          0
334              83.00      0          0          0          0
335              76.00      0          0          0          0
336              62.00      0          0          0          0
337              74.00      0          0          0          0
338              73.00      0          0          0          0
339              67.00      0          0          0          0
340              66.00      0          0          0          0
341              67.00      0          0          0          0
342              65.00      0          0          0          0
343              63.00      0          0          0          0
344              82.50      0          0          0          0
345              82.50      0          0          0          0
346              62.00      0          0          0          0
347              67.00      0          0          0          0
348              64.00      0          0          0          0
349              65.00      0          0          0          0
350              81.50      0          0          0          0
351              63.00      0          0          0          0
352              63.00      0          0          0          0
353              71.00      0          0          0          0
354              71.00      0          0          0          0
355              80.00      0          0          0          0
357              74.00      0          0          0          0
358              75.00      0          0          0          0
359              66.00      0          0          0          0
360              73.00      0          0          0          0
361              71.00      0          0          0          0
362              72.00      0          0          0          0
363              81.00      0          0          0          0
364              70.00      0          0          0          0
365              65.00      0          0          0          0
366              68.00      0          0          0          0
367              64.00      0          0          0          0
368              62.00      0          0          0          0
369              80.00      0          0          0          0
370              61.00      0          0          0          0
371              66.00      0          0          0          0
372              64.00      0          0          0          0
373              62.00      0          0          0          0
374              80.00      0          0          0          0
375              70.00      0          0          0          0
376              79.00      0          0          0          0
377              65.00      0          0          0          0
378              64.00      0          0          0          0
379              62.00      0          0          0          0
380              80.00      0          0          0          0
381              79.00      0          0          0          0
382              75.00      0          0          0          0
383              73.00      0          0          0          0
384              72.00      0          0          0          0
385              76.00      0          0          0          0
386              74.00      0          0          0          0
387              72.00      0          0          0          0
388              78.00      0          0          0          0
389              77.00      0          0          0          0
390              79.00      0          0          0          0
391              75.00      0          0          0          0
392              72.00      0          0          0          0
393              74.00      0          0          0          0
394              72.00      0          0          0          0
395              71.00      0          0          0          0
396              79.00      0          0          0          0
397              69.00      0          0          0          0
398              66.00      0          0          0          0
399              68.00      0          0          0          0
400              67.00      0          0          0          0
401              65.00      0          0          0          0
402              65.00      0          0          0          0
403              64.00      0          0          0          0
404              65.00      0          0          0          0
405              64.00      0          0          0          0
406              63.00      0          0          0          0
407              65.00      0          0          0          0
408              62.00      0          0          0          0
409              64.00      0          0          0          0
410              63.00      0          0          0          0
411              61.00      0          0          0          0
412              60.00      0          0          0          0
413              55.79      0          0          0          0
414              79.00      0          0          0          0
415              79.00      0          0          0          0
416              63.00      0          0          0          0
417              78.50      0          0          0          0
418              63.00      0          0          0          0
419              75.00      0          0          0          0
420              62.00      0          0          0          0
421              63.00      0          0          0          0
422              62.00      0          0          0          0
423              63.00      0          0          0          0
424              63.00      0          0          0          0
425              61.00      0          0          0          0
426              79.00      0          0          0          0
427              78.50      0          0          0          0
428              76.00      0          0          0          0
429              75.00      0          0          0          0
430              74.00      0          0          0          0
431              72.00      0          0          0          0
432              73.00      0          0          0          0
433              71.00      0          0          0          0
434              70.00      0          0          0          0
435              69.00      0          0          0          0
436              68.00      0          0          0          0
437              63.00      0          0          0          0
438              66.00      0          0          0          0
439              61.00      0          0          0          0
440              61.00      0          0          0          0
441              79.00      0          0          0          0
442              62.00      0          0          0          0
443              63.00      0          0          0          0
444              78.50      0          0          0          0
445              71.00      0          0          0          0
446              60.50      0          0          0          0
447              61.00      0          0          0          0
448              62.00      0          0          0          0
449              60.00      0          0          0          0
450              59.00      0          0          0          0
451              78.50      0          0          0          0
452              78.50      0          0          0          0
453              80.00      0          0          0          0
454              77.50      0          0          0          0
455              76.00      0          0          0          0
456              74.00      0          0          0          0
457              78.00      0          0          0          0
458              78.00      0          0          0          0
459              77.50      0          0          0          0
460              72.00      0          0          0          0
461              78.00      0          0          0          0
462              72.00      0          0          0          0
463              78.00      0          0          0          0
464              71.00      0          0          0          0
465              71.00      0          0          0          0
466              71.00      0          0          0          0