;; SWMM5 .inp converted from XPSWMM .xp file
;; Generated by XPSWMM Card Reader
;; Source format: XP_CARD | Original title: MSD THIRD AVE STORGAE CONDUIT

[TITLE]
;;Project Title/Notes
MSD THIRD AVE STORGAE CONDUIT

[OPTIONS]
FLOW_UNITS           CFS
INFILTRATION         HORTON
FLOW_ROUTING         DYNWAVE
LINK_OFFSETS         DEPTH
MIN_SLOPE            0.0
ALLOW_PONDING        NO
SKIP_STEADY_STATE    NO
ROUTING_STEP         00:00:10
VARIABLE_STEP        0.75
INERTIAL_DAMPING     PARTIAL
NORMAL_FLOW_LIMITED  BOTH
MAX_TRIALS           50

[JUNCTIONS]
;;Name           Elev       MaxDepth   InitDepth  SurDepth   Aponded
;;-------------- ---------- ---------- ---------- ---------- ----------
STB              513.00     0          0          0          0
STS              513.00     0          0          0          0
STM              515.00     0          0          0          0
STW              512.00     0          0          0          0
STV              513.00     0          0          0          0
STR              513.00     0          0          0          0
R1               540.00     0          0          0          0
R2               540.00     0          0          0          0
R3               550.00     0          0          0          0
R4               550.00     0          0          0          0
R5               550.00     0          0          0          0
R6               550.00     0          0          0          0
V1               540.00     0          0          0          0
V2               540.00     0          0          0          0
V3               540.00     0          0          0          0
V4               550.00     0          0          0          0
W1               540.00     0          0          0          0
W2               540.00     0          0          0          0
W3               540.00     0          0          0          0
W4               540.00     0          0          0          0
W5               540.00     0          0          0          0
M1               540.00     0          0          0          0
M2               540.00     0          0          0          0
M3               540.00     0          0          0          0
M4               540.00     0          0          0          0
M5               550.00     0          0          0          0
S1               540.00     0          0          0          0
S2               540.00     0          0          0          0
S3               540.00     0          0          0          0
S4               540.00     0          0          0          0
B1               540.00     0          0          0          0
B2               540.00     0          0          0          0
B3               540.00     0          0          0          0
STE              512.50     0          0          0          0
OF               514.00     0          0          0          0
78               525.00     0          0          0          0
85               540.00     0          0          0          0
86               540.00     0          0          0          0
87               540.00     0          0          0          0
88               540.00     0          0          0          0
89               550.00     0          0          0          0
SANINTER         525.00     0          0          0          0
CH3              514.00     0          0          0          0
103              530.00     0          0          0          0
104              530.00     0          0          0          0
105              514.00     0          0          0          0
106              530.00     0          0          0          0
107              530.00     0          0          0          0
108              530.00     0          0          0          0
109              515.00     0          0          0          0
110              515.00     0          0          0          0
111              530.00     0          0          0          0
112              530.00     0          0          0          0
113              530.00     0          0          0          0
OF2              514.00     0          0          0          0
128              514.00     0          0          0          0
163              520.00     0          0          0          0
164              515.00     0          0          0          0
168              515.00     0          0          0          0
SANFLOW          514.00     0          0          0          0

[CONDUITS]
;;Name           From             To               Length     Roughness  InOffset   OutOffset  InitFlow   MaxFlow
;;-------------- ---------------- ---------------- ---------- ---------- ---------- ---------- ---------- ----------
34               STB              STS              500.00     0.0140     490.10     489.59     0          0
35               STS              STM              500.00     0.0140     489.59     489.08     0          0
36               STM              STW              500.00     0.0140     489.08     488.57     0          0
37               STW              STV              450.00     0.0140     488.57     488.11     0          0
38               STV              STR              500.00     0.0140     488.11     487.60     0          0
39               R6               R5               340.00     0.0140     538.27     536.00     0          0
40               R5               R4               250.00     0.0140     536.00     534.41     0          0
41               R4               R3               340.00     0.0140     534.39     532.01     0          0
42               R3               R2               470.00     0.0140     532.01     527.29     0          0
43               R2               R1               270.00     0.0140     527.29     499.50     0          0
44               R1               STR              200.00     0.0140     499.50     495.00     0          0
45               V4               V3               250.00     0.0140     538.82     535.25     0          0
46               V3               V2               240.00     0.0140     535.25     526.22     0          0
47               V2               V1               200.00     0.0140     526.20     524.00     0          0
48               V1               STV              200.00     0.0140     499.00     495.00     0          0
49               W5               W4               250.00     0.0140     537.01     535.54     0          0
50               W4               W3               320.00     0.0140     535.53     533.24     0          0
51               W3               W2               370.00     0.0140     533.22     518.01     0          0
52               W2               W1               250.00     0.0140     517.99     498.09     0          0
53               W1               STW              200.00     0.0140     498.08     497.00     0          0
54               M5               M4               230.00     0.0140     539.19     537.44     0          0
55               M4               M3               240.00     0.0140     537.44     535.36     0          0
56               M3               M2               460.00     0.0140     535.35     526.90     0          0
57               M2               M1               280.00     0.0140     526.88     498.49     0          0
58               M1               STM              200.00     0.0140     498.48     498.00     0          0
59               S4               S3               470.00     0.0140     533.02     529.00     0          0
60               S3               S2               465.00     0.0140     529.00     523.91     0          0
61               S2               S1               270.00     0.0140     523.91     499.56     0          0
62               S1               STS              200.00     0.0140     499.56     497.00     0          0
63               B3               B2               480.00     0.0140     530.52     524.74     0          0
64               B2               B1               310.00     0.0140     524.74     498.45     0          0
65               B1               STB              200.00     0.0140     498.45     495.00     0          0
90               89               88               340.00     0.0140     538.27     536.00     0          0
91               88               87               250.00     0.0140     536.00     534.41     0          0
92               87               86               340.00     0.0140     534.41     532.03     0          0
93               86               85               270.00     0.0140     532.01     504.22     0          0
94               85               STE              200.00     0.0140     499.50     495.00     0          0
96               STE              STR              500.00     0.0140     488.10     487.60     0          0
TO               78               SANINTER         200.00     0.0130     488.00     484.00     0          0
60inchUC         OF               128              453.00     0.0130     490.21     487.21     0          0
114              106              107              200.00     0.0140     494.30     492.90     0          0
115              107              108              200.00     0          492.90     491.50     0          0
116              108              109              200.00     0          491.50     490.10     0          0
117              109              110              200.00     0.0140     490.10     488.70     0          0
118              110              128              200.00     0.0140     488.70     488.00     0          0
119              111              112              200.00     0.0140     488.93     487.53     0          0
120              112              113              200.00     0.0140     487.53     486.13     0          0
127              113              CH3              200.00     0.0140     486.14     484.74     0          0
131              128              CH3              412.00     0.0130     487.21     484.74     0          0
136              103              104              200.00     0.0140     499.40     498.00     0          0
137              104              105              200.00     0          498.00     496.00     0          0
138              105              STB              200.00     0.0140     496.00     495.00     0          0
166              CH3              163              289.66     0.0140     484.74     483.00     0          0
171              164              SANFLOW          500.00     0.0130     483.00     470.90     0          0
172              168              OF2              500.00     0.0130     484.83     476.03     0          0

[ORIFICES]
;;Name           From             To               Type       Offset     Qcoeff     Gated    CloseTime
;;-------------- ---------------- ---------------- ---------- ---------- ---------- -------- ----------
ORIFICE          STR              78               SIDE       0          0.650      NO       0
VVALVE           163              164              SIDE       0          0.650      NO       0

[WEIRS]
;;Name           From             To               Type       CrestHt    Qcoeff     Gated    EndCon   EndCoeff   Surcharge
;;-------------- ---------------- ---------------- ---------- ---------- ---------- -------- -------- ---------- ----------
WEIR             STE              OF               TRANSVERSE 498.00     1.840      NO       0        0          YES
WEIR2            163              168              TRANSVERSE 485.00     1.840      NO       0        0          YES

[XSECTIONS]
;;Link           Shape        Geom1      Geom2      Geom3      Geom4      Barrels
;;-------------- ------------ ---------- ---------- ---------- ---------- ----------
34               RECT_CLOSED  12.00      16.00      0          0          1
35               RECT_CLOSED  12.00      16.00      0          0          1
36               RECT_CLOSED  12.00      16.00      0          0          1
37               RECT_CLOSED  12.00      16.00      0          0          1
38               RECT_CLOSED  12.00      16.00      0          0          1
39               CIRCULAR     2.00       0          0          0          1
40               CIRCULAR     2.50       0          0          0          1
41               CIRCULAR     3.00       0          0          0          1
42               CIRCULAR     3.00       0          0          0          1
43               CIRCULAR     3.00       0          0          0          1
44               CIRCULAR     3.00       0          0          0          1
45               CIRCULAR     2.70       0          0          0          1
46               CIRCULAR     3.00       0          0          0          1
47               CIRCULAR     3.00       0          0          0          1
48               CIRCULAR     3.00       0          0          0          1
49               CIRCULAR     1.50       0          0          0          1
50               CIRCULAR     2.50       0          0          0          1
51               CIRCULAR     3.00       0          0          0          1
52               CIRCULAR     3.00       0          0          0          1
53               CIRCULAR     3.00       0          0          0          1
54               CIRCULAR     2.00       0          0          0          1
55               CIRCULAR     2.00       0          0          0          1
56               CIRCULAR     2.50       0          0          0          1
57               CIRCULAR     3.00       0          0          0          1
58               CIRCULAR     3.00       0          0          0          1
59               CIRCULAR     2.00       0          0          0          1
60               CIRCULAR     3.00       0          0          0          1
61               CIRCULAR     3.00       0          0          0          1
62               CIRCULAR     3.00       0          0          0          1
63               CIRCULAR     1.83       0          0          0          1
64               CIRCULAR     2.50       0          0          0          1
65               CIRCULAR     2.50       0          0          0          1
90               CIRCULAR     2.00       0          0          0          1
91               CIRCULAR     2.50       0          0          0          1
92               CIRCULAR     3.00       0          0          0          1
93               CIRCULAR     3.00       0          0          0          1
94               CIRCULAR     3.00       0          0          0          1
96               RECT_CLOSED  12.00      16.00      0          0          1
TO               CIRCULAR     2.00       0          0          0          1
60inchUC         CIRCULAR     5.00       0          0          0          1
114              CIRCULAR     3.00       0          0          0          1
115              CIRCULAR     3.00       0          0          0          1
116              CIRCULAR     3.00       0          0          0          1
117              CIRCULAR     3.00       0          0          0          1
118              CIRCULAR     3.00       0          0          0          1
119              CIRCULAR     3.00       0          0          0          1
120              CIRCULAR     3.00       0          0          0          1
127              CIRCULAR     3.00       0          0          0          1
131              CIRCULAR     5.00       0          0          0          1
136              CIRCULAR     3.00       0          0          0          1
137              CIRCULAR     3.00       0          0          0          1
138              CIRCULAR     3.00       0          0          0          1
166              CIRCULAR     5.00       0          0          0          1
171              CIRCULAR     2.00       0          0          0          1
172              CIRCULAR     5.50       0          0          0          1
ORIFICE          RECT_CLOSED  1.00       0          0          0          
VVALVE           RECT_CLOSED  0          0          0          0          
WEIR             RECT_OPEN    0          120.00     0          0          
WEIR2            RECT_OPEN    0          6.00       0          0          

[LOSSES]
;;Link           Inlet      Outlet     Average    Flap Gate
;;-------------- ---------- ---------- ---------- ----------
34               0          0          0          NO
35               0          0          0          NO
36               0          0          0          NO
37               0          0          0          NO
38               0          0          0          NO
39               0          0          0          NO
40               0          0          0          NO
41               0          0          0          NO
42               0          0          0          NO
43               0          0          0          NO
44               0          0          0          NO
45               0          0          0          NO
46               0          0          0          NO
47               0          0          0          NO
48               0          0          0          NO
49               0          0          0          NO
50               0          0          0          NO
51               0          0          0          NO
52               0          0          0          NO
53               0          0          0          NO
54               0          0          0          NO
55               0          0          0          NO
56               0          0          0          NO
57               0          0          0          NO
58               0          0          0          NO
59               0          0          0          NO
60               0          0          0          NO
61               0          0          0          NO
62               0          0          0          NO
63               0          0          0          NO
64               0          0          0          NO
65               0          0          0          NO
90               0          0          0          NO
91               0          0          0          NO
92               0          0          0          NO
93               0          0          0          NO
94               0          0          0          NO
96               0          0          0          NO
TO               0          0          0          NO
60inchUC         0          0          0          NO
114              0          0          0          NO
115              0          0          0          NO
116              0          0          0          NO
117              0          0          0          NO
118              0          0          0          NO
119              0          0          0          NO
120              0          0          0          NO
127              0          0          0          NO
131              0          0          0          NO
136              0          0          0          NO
137              0          0          0          NO
138              0          0          0          NO
166              0          0          0          NO
171              0          0          0          NO
172              0          0          0          NO

[INFLOWS]
;;Node           Constituent  Time Series      Type     Mfactor  Sfactor  Baseline Pattern
;;-------------- ------------ ---------------- -------- -------- -------- -------- --------
R6               FLOW         ""               FLOW     1.0      1.0      0.94
V4               FLOW         ""               FLOW     1.0      1.0      0.94
W5               FLOW         ""               FLOW     1.0      1.0      0.94
M5               FLOW         ""               FLOW     1.0      1.0      0.94
S4               FLOW         ""               FLOW     1.0      1.0      0.94
B3               FLOW         ""               FLOW     1.0      1.0      0.94
89               FLOW         ""               FLOW     1.0      1.0      0.94
103              FLOW         ""               FLOW     1.0      1.0      0.94

[COORDINATES]
;;Node           X-Coord            Y-Coord
;;-------------- ------------------ ------------------
STB              104.62             263.61            
STS              106.15             246.76            
STM              106.03             224.70            
STW              105.37             193.97            
STV              105.95             163.16            
STR              105.49             136.78            
R1               90.95              135.27            
R2               73.73              134.29            
R3               57.79              133.94            
R4               45.11              133.67            
R5               29.40              133.28            
R6               14.36              133.83            
V1               90.57              161.31            
V2               69.92              161.43            
V3               49.73              160.85            
V4               27.84              161.47            
W1               91.86              191.96            
W2               70.49              191.14            
W3               55.42              190.56            
W4               35.62              190.73            
W5               15.27              191.59            
M1               88.65              223.16            
M2               71.36              223.01            
M3               53.43              223.32            
M4               36.17              222.50            
M5               15.86              222.85            
S1               88.60              246.03            
S2               71.45              245.33            
S3               45.85              245.02            
S4               23.19              244.64            
B1               85.86              263.82            
B2               69.90              263.31            
B3               52.95              263.44            
STE              104.62             104.49            
OF               103.45             81.93             
78               129.76             137.85            
85               90.45              104.07            
86               67.02              103.82            
87               47.33              103.35            
88               34.20              102.81            
89               14.51              102.65            
SANINTER         147.64             138.18            
CH3              112.77             47.79             
103              63.18              274.49            
104              76.99              274.88            
105              94.01              275.07            
106              23.81              63.50             
107              45.03              63.94             
108              58.30              64.29             
109              72.33              64.09             
110              86.41              63.89             
111              36.16              46.57             
112              61.83              46.80             
113              82.68              47.19             
OF2              155.61             48.87             
128              113.25             65.18             
163              125.73             65.82             
164              135.42             80.82             
168              139.17             49.25             
SANFLOW          155.11             80.50             

[MAP]
DIMENSIONS 14.36 46.57 155.61 275.07
Units      None

[REPORT]
INPUT            YES
SUBCATCHMENTS    ALL
NODES            ALL
LINKS            ALL



