;; SWMM5 .inp converted from XPSWMM .xp file
;; Generated by XPSWMM Card Reader
;; Source format: XP_CARD | Original title: (none)

[TITLE]
;;Project Title/Notes
Converted from XPSWMM .xp file

[OPTIONS]
FLOW_UNITS           CMS
INFILTRATION         HORTON
FLOW_ROUTING         DYNWAVE
LINK_OFFSETS         DEPTH
MIN_SLOPE            0.0
ALLOW_PONDING        NO
SKIP_STEADY_STATE    NO
ROUTING_STEP         00:00:04
VARIABLE_STEP        0.75
INERTIAL_DAMPING     PARTIAL
NORMAL_FLOW_LIMITED  BOTH
MAX_TRIALS           50

[JUNCTIONS]
;;Name           Elev       MaxDepth   InitDepth  SurDepth   Aponded
;;-------------- ---------- ---------- ---------- ---------- ----------
0                11.00      0          0          0          0
0                11.00      0          0          0          0
0                11.00      0          0          0          0
0                11.00      0          0          0          0
0                11.00      0          0          0          0
0                11.00      0          0          0          0
0                11.00      0          0          0          0
0                11.00      0          0          0          0
0                11.00      0          0          0          0
0                11.00      0          0          0          0
0                11.00      0          0          0          0
0                11.00      0          0          0          0
0                11.00      0          0          0          0
0                11.00      0          0          0          0
0                11.00      0          0          0          0
0                11.00      0          0          0          0
0                11.00      0          0          0          0
0                11.00      0          0          0          0
0                11.00      0          0          0          0
0                11.00      0          0          0          0
0                11.00      0          0          0          0
0                11.00      0          0          0          0
0                11.00      0          0          0          0
0                11.00      0          0          0          0
0                11.00      0          0          0          0
0                11.00      0          0          0          0
0                11.00      0          0          0          0
0                11.00      0          0          0          0
0                11.00      0          0          0          0
0                11.00      0          0          0          0
0                11.00      0          0          0          0
0                11.00      0          0          0          0
0                11.00      0          0          0          0
0                11.00      0          0          0          0
0                11.00      0          0          0          0
0                11.00      0          0          0          0
0                11.00      0          0          0          0
0                11.00      0          0          0          0
0                11.00      0          0          0          0
0                11.00      0          0          0          0
0                11.00      0          0          0          0
0                11.00      0          0          0          0
0                11.00      0          0          0          0
0                11.00      0          0          0          0
0                11.00      0          0          0          0
0                11.00      0          0          0          0
0                11.00      0          0          0          0
0                11.00      0          0          0          0

[CONDUITS]
;;Name           From             To               Length     Roughness  InOffset   OutOffset  InitFlow   MaxFlow
;;-------------- ---------------- ---------------- ---------- ---------- ---------- ---------- ---------- ----------
226              0                0                100.00     0          0.03       0.02       0          0
227              0                0                100.00     0          0.02       0.01       0          0
229              0                0                100.00     0          0.01       0          0          0
233              0                0                100.00     0          0.03       0.02       0          0
234              0                0                100.00     0          0.02       0.01       0          0
236              0                0                100.00     0          0.01       0          0          0
233              ?                0                0          0          0          0          0          0
242              0                0                100.00     0          0.03       0.02       0          0
243              0                0                100.00     0          0.10       0.09       0          0
244              0                0                100.00     0          0.01       0          0          0
250              0                0                100.00     0          0.03       0.02       0          0
251              0                0                100.00     0          0.09       0.08       0          0
252              0                0                100.00     0          0.01       0          0          0
258              0                0                100.00     0          0.03       0.02       0          0
259              0                0                100.00     0          0.08       0.07       0          0
260              0                0                100.00     0          0.01       0          0          0
266              0                0                100.00     0          0.03       0.02       0          0
267              0                0                100.00     0          0.07       0.06       0          0
268              0                0                100.00     0          0.01       0          0          0
274              0                0                100.00     0          0.03       0.02       0          0
275              0                0                100.00     0          0.06       0.05       0          0
276              0                0                100.00     0          0.01       0          0          0
282              0                0                100.00     0          0.03       0.02       0          0
283              0                0                100.00     0          0.05       0.04       0          0
284              0                0                100.00     0          0.01       0          0          0
290              0                0                100.00     0          0.03       0.02       0          0
291              0                0                100.00     0          0.04       0.03       0          0
292              0                0                100.00     0          0.01       0          0          0
298              0                0                100.00     0          0.03       0.02       0          0
299              0                0                100.00     0          0.02       0.01       0          0
300              0                0                100.00     0          0.01       0          0          0
306              0                0                100.00     0          0.03       0.02       0          0
307              0                0                100.00     0          0.02       0.01       0          0
308              0                0                100.00     0          0.01       0          0          0
322              0                0                100.00     0          0.03       0.02       0          0
323              0                0                100.00     0          0.02       0.01       0          0
324              0                0                100.00     0          0.01       0          0          0
274              ?                0                0          0          0          0          0          0
266              ?                0                0          0          0          0          0          0
258              ?                0                0          0          0          0          0          0
250              ?                0                0          0          0          0          0          0
242              ?                0                0          0          0          0          0          0
322              ?                0                0          0          0          0          0          0
306              ?                0                0          0          0          0          0          0
298              ?                0                0          0          0          0          0          0
290              ?                0                0          0          0          0          0          0
282              ?                0                0          0          0          0          0          0

[XSECTIONS]
;;Link           Shape        Geom1      Geom2      Geom3      Geom4      Barrels
;;-------------- ------------ ---------- ---------- ---------- ---------- ----------
226              IRREGULAR    10.00      0          0          0          1
227              IRREGULAR    10.00      0          0          0          1
229              IRREGULAR    10.00      0          0          0          1
233              IRREGULAR    10.00      0          0          0          1
234              IRREGULAR    10.00      0          0          0          1
236              IRREGULAR    10.00      0          0          0          1
233              CIRCULAR     0          0          0          0          1
242              IRREGULAR    10.00      0          0          0          1
243              IRREGULAR    10.00      0          0          0          1
244              IRREGULAR    10.00      0          0          0          1
250              IRREGULAR    10.00      0          0          0          1
251              IRREGULAR    10.00      0          0          0          1
252              IRREGULAR    10.00      0          0          0          1
258              IRREGULAR    10.00      0          0          0          1
259              IRREGULAR    10.00      0          0          0          1
260              IRREGULAR    10.00      0          0          0          1
266              IRREGULAR    10.00      0          0          0          1
267              IRREGULAR    10.00      0          0          0          1
268              IRREGULAR    10.00      0          0          0          1
274              IRREGULAR    10.00      0          0          0          1
275              IRREGULAR    10.00      0          0          0          1
276              IRREGULAR    10.00      0          0          0          1
282              IRREGULAR    10.00      0          0          0          1
283              IRREGULAR    10.00      0          0          0          1
284              IRREGULAR    10.00      0          0          0          1
290              IRREGULAR    10.00      0          0          0          1
291              IRREGULAR    10.00      0          0          0          1
292              IRREGULAR    10.00      0          0          0          1
298              IRREGULAR    10.00      0          0          0          1
299              IRREGULAR    10.00      0          0          0          1
300              IRREGULAR    10.00      0          0          0          1
306              IRREGULAR    10.00      0          0          0          1
307              IRREGULAR    10.00      0          0          0          1
308              IRREGULAR    10.00      0          0          0          1
322              IRREGULAR    10.00      0          0          0          1
323              IRREGULAR    10.00      0          0          0          1
324              IRREGULAR    10.00      0          0          0          1
274              CIRCULAR     0          0          0          0          1
266              CIRCULAR     0          0          0          0          1
258              CIRCULAR     0          0          0          0          1
250              CIRCULAR     0          0          0          0          1
242              CIRCULAR     0          0          0          0          1
322              CIRCULAR     0          0          0          0          1
306              CIRCULAR     0          0          0          0          1
298              CIRCULAR     0          0          0          0          1
290              CIRCULAR     0          0          0          0          1
282              CIRCULAR     0          0          0          0          1

[LOSSES]
;;Link           Inlet      Outlet     Average    Flap Gate
;;-------------- ---------- ---------- ---------- ----------
226              0          0          0          NO
227              0          0          0          NO
229              0          0          0          NO
233              0          0          0          NO
234              0          0          0          NO
236              0          0          0          NO
233              0          0          0          NO
242              0          0          0          NO
243              0          0          0          NO
244              0          0          0          NO
250              0          0          0          NO
251              0          0          0          NO
252              0          0          0          NO
258              0          0          0          NO
259              0          0          0          NO
260              0          0          0          NO
266              0          0          0          NO
267              0          0          0          NO
268              0          0          0          NO
274              0          0          0          NO
275              0          0          0          NO
276              0          0          0          NO
282              0          0          0          NO
283              0          0          0          NO
284              0          0          0          NO
290              0          0          0          NO
291              0          0          0          NO
292              0          0          0          NO
298              0          0          0          NO
299              0          0          0          NO
300              0          0          0          NO
306              0          0          0          NO
307              0          0          0          NO
308              0          0          0          NO
322              0          0          0          NO
323              0          0          0          NO
324              0          0          0          NO
274              0          0          0          NO
266              0          0          0          NO
258              0          0          0          NO
250              0          0          0          NO
242              0          0          0          NO
322              0          0          0          NO
306              0          0          0          NO
298              0          0          0          NO
290              0          0          0          NO
282              0          0          0          NO

[COORDINATES]
;;Node           X-Coord            Y-Coord
;;-------------- ------------------ ------------------
0                37.64              -2.36             
0                57.64              17.64             
0                77.64              37.64             
0                97.64              57.64             
0                37.64              -22.36            
0                57.64              -2.36             
0                77.64              17.64             
0                97.64              37.64             
0                37.64              -42.36            
0                57.64              -22.36            
0                77.64              -2.36             
0                97.64              17.64             
0                37.64              -62.36            
0                57.64              -42.36            
0                77.64              -22.36            
0                97.64              -2.36             
0                37.64              -82.36            
0                57.64              -62.36            
0                77.64              -42.36            
0                97.64              -22.36            
0                37.64              -102.36           
0                57.64              -82.36            
0                77.64              -62.36            
0                97.64              -42.36            
0                37.64              -122.36           
0                57.64              -102.36           
0                77.64              -82.36            
0                97.64              -62.36            
0                37.64              -142.36           
0                57.64              -122.36           
0                77.64              -102.36           
0                97.64              -82.36            
0                37.64              -162.36           
0                57.64              -142.36           
0                77.64              -122.36           
0                97.64              -102.36           
0                37.64              -182.36           
0                57.64              -162.36           
0                77.64              -142.36           
0                97.64              -122.36           
0                37.64              -202.36           
0                57.64              -182.36           
0                77.64              -162.36           
0                97.64              -142.36           
0                37.64              -222.36           
0                57.64              -202.36           
0                77.64              -182.36           
0                97.64              -162.36           

[MAP]
DIMENSIONS 37.64 -222.36 97.64 57.64
Units      None

[REPORT]
INPUT            YES
SUBCATCHMENTS    ALL
NODES            ALL
LINKS            ALL



