;; SWMM5 .inp converted from XPSWMM .xp file
;; Generated by XPSWMM Card Reader
;; Source format: XP_CARD | Original title: Newark, Ohio - CSO Study.   i:\nwrkcso\swmm\system.xp

[TITLE]
;;Project Title/Notes
Newark, Ohio - CSO Study.   i:\nwrkcso\swmm\system.xp

[OPTIONS]
FLOW_UNITS           CFS
INFILTRATION         HORTON
FLOW_ROUTING         DYNWAVE
LINK_OFFSETS         DEPTH
MIN_SLOPE            0.0
ALLOW_PONDING        NO
SKIP_STEADY_STATE    NO
ROUTING_STEP         00:00:30
VARIABLE_STEP        0.75
INERTIAL_DAMPING     PARTIAL
NORMAL_FLOW_LIMITED  BOTH

[JUNCTIONS]
;;Name           Elev       MaxDepth   InitDepth  SurDepth   Aponded
;;-------------- ---------- ---------- ---------- ---------- ----------
Q94              890.00     0          0          0          0
Q91              889.10     0          0          0          0
Q89              889.50     0          0          0          0
Q83              877.80     0          0          0          0
Q77              876.90     0          0          0          0
Q74              878.60     0          0          0          0
Q70              876.00     0          0          0          0
Q1               867.50     0          0          0          0
P136             871.80     0          0          0          0
Q7               885.00     0          0          0          0
Q5               882.50     0          0          0          0
H103             842.99     0          0          0          0
H94              846.50     0          0          0          0
H85              838.79     0          0          0          0
H99              847.78     0          0          0          0
H96              848.26     0          0          0          0
H189             861.00     0          0          0          0
H169             860.95     0          0          0          0
H165             853.24     0          0          0          0
H153             842.00     0          0          0          0
H107             834.56     0          0          0          0
I84              833.66     0          0          0          0
H149             835.36     0          0          0          0
H146             837.86     0          0          0          0
I97              847.47     0          0          0          0
I87              845.26     0          0          0          0
L134             881.35     0          0          0          0
L129             865.65     0          0          0          0
L120             857.77     0          0          0          0
L33              824.57     0          0          0          0
L40              823.25     0          0          0          0
M72              871.93     0          0          0          0
M63              864.27     0          0          0          0
H238             876.81     0          0          0          0
L131             878.04     0          0          0          0
L41              822.00     0          0          0          0
L43              823.96     0          0          0          0
L2               821.65     0          0          0          0
I23              826.71     0          0          0          0
I14              824.24     0          0          0          0
I10A             820.31     0          0          0          0
I36              815.61     0          0          0          0
L1A              815.66     0          0          0          0
Y2               817.60     0          0          0          0
Y5               816.60     0          0          0          0
Y11              815.36     0          0          0          0
L53              824.46     0          0          0          0
L76              855.70     0          0          0          0
L54              825.55     0          0          0          0
E139             832.10     0          0          0          0
E136             824.70     0          0          0          0
E134             823.11     0          0          0          0
E131             821.60     0          0          0          0
E129             822.30     0          0          0          0
E128             821.10     0          0          0          0
E126             825.40     0          0          0          0
E125             823.00     0          0          0          0
E104             816.70     0          0          0          0
L101             825.57     0          0          0          0
L95              823.20     0          0          0          0
X27              823.06     0          0          0          0
X25              818.86     0          0          0          0
X20              822.76     0          0          0          0
X18              828.26     0          0          0          0
X17              828.25     0          0          0          0
X12              826.96     0          0          0          0
X7               826.66     0          0          0          0
X3               818.76     0          0          0          0
X98              844.26     0          0          0          0
X95              825.76     0          0          0          0
Y1               822.19     0          0          0          0
Z6               829.64     0          0          0          0
E79A             811.80     0          0          0          0
E70              809.25     0          0          0          0
E90              813.50     0          0          0          0
E78              814.50     0          0          0          0
I1               810.61     0          0          0          0
E117             810.36     0          0          0          0
E115             813.36     0          0          0          0
E114             812.96     0          0          0          0
E111             812.30     0          0          0          0
E120             812.89     0          0          0          0
K13              854.15     0          0          0          0
K12              845.65     0          0          0          0
K3               839.45     0          0          0          0
K1               815.50     0          0          0          0
K8               858.35     0          0          0          0
K4               838.85     0          0          0          0
Z14              859.14     0          0          0          0
Z11              849.64     0          0          0          0
Z16              858.00     0          0          0          0
Z19              858.64     0          0          0          0
Z54              857.60     0          0          0          0
T1               856.00     0          0          0          0
Z72              856.21     0          0          0          0
E141A            828.70     0          0          0          0
L108             837.37     0          0          0          0
L107             826.17     0          0          0          0
L105             825.67     0          0          0          0
E144             838.40     0          0          0          0
S34              852.60     0          0          0          0
S36              851.10     0          0          0          0
S40              842.90     0          0          0          0
R1               843.40     0          0          0          0
P6               842.50     0          0          0          0
P92              869.70     0          0          0          0
P51              854.00     0          0          0          0
P17              854.00     0          0          0          0
R5               858.00     0          0          0          0
P53              865.80     0          0          0          0
P56              867.50     0          0          0          0
V1               840.10     0          0          0          0
E145             836.00     0          0          0          0
V8               858.90     0          0          0          0
M56              858.18     0          0          0          0
M39              851.38     0          0          0          0
M2               850.35     0          0          0          0
M1               842.68     0          0          0          0
M49              863.15     0          0          0          0
M41              859.24     0          0          0          0
442              859.50     0          0          0          0
443              861.20     0          0          0          0
Q13              884.00     0          0          0          0
Q8               881.90     0          0          0          0
P100             870.50     0          0          0          0
P96              864.67     0          0          0          0
P167             862.00     0          0          0          0
P170             864.00     0          0          0          0
BB20             884.60     0          0          0          0
BB16             887.00     0          0          0          0
BB15             885.70     0          0          0          0
S1               854.50     0          0          0          0
S8               853.30     0          0          0          0
S28              854.80     0          0          0          0
S30              850.00     0          0          0          0
S31              855.60     0          0          0          0
S33              853.40     0          0          0          0
S12              859.80     0          0          0          0
S9               852.30     0          0          0          0
S14              864.50     0          0          0          0
S20              868.00     0          0          0          0
S24              864.40     0          0          0          0
S83              870.50     0          0          0          0
S86              893.80     0          0          0          0
S85              870.60     0          0          0          0
STWTRPS          820.00     0          0          0          0
E61A             811.00     0          0          0          0
E60              803.08     0          0          0          0
H57              827.00     0          0          0          0
H53              831.00     0          0          0          0
H1               809.90     0          0          0          0
H16              820.28     0          0          0          0
H15              815.09     0          0          0          0
H3               812.78     0          0          0          0
E59              809.91     0          0          0          0
OF13             814.00     0          0          0          0
E57              808.40     0          0          0          0
J2               812.81     0          0          0          0
J1               808.38     0          0          0          0
OF12             805.00     0          0          0          0
E42              807.47     0          0          0          0
E40              808.45     0          0          0          0
E20              810.83     0          0          0          0
E19A             810.90     0          0          0          0
OF31             810.00     0          0          0          0
E13              806.00     0          0          0          0
E5               802.37     0          0          0          0
E4               800.00     0          0          0          0
WWTP2            805.50     0          0          0          0
D50              811.44     0          0          0          0
D1               809.44     0          0          0          0
D7               809.24     0          0          0          0
A31              809.70     0          0          0          0
WWTP3            805.00     0          0          0          0
A48              815.00     0          0          0          0
A26              842.80     0          0          0          0
A2               888.90     0          0          0          0
A3               901.50     0          0          0          0
A4               902.90     0          0          0          0
A6               881.30     0          0          0          0
A10              845.50     0          0          0          0
A20              840.70     0          0          0          0
A23              840.00     0          0          0          0
OF30             840.00     0          0          0          0
Z164             863.79     0          0          0          0
Z158             862.59     0          0          0          0
Z157A            857.29     0          0          0          0
Z156A            858.20     0          0          0          0
OF16b            857.00     0          0          0          0
I98              848.45     0          0          0          0
H72              831.89     0          0          0          0
OF17             810.00     0          0          0          0
OF18             820.00     0          0          0          0
OF19             820.00     0          0          0          0
L6               819.58     0          0          0          0
I111             826.00     0          0          0          0
I22              825.18     0          0          0          0
OF20             820.00     0          0          0          0
OF21             820.00     0          0          0          0
OF22             820.00     0          0          0          0
OF23             820.00     0          0          0          0
L44              821.70     0          0          0          0
L47              836.12     0          0          0          0
OF24             820.00     0          0          0          0
OF26             822.00     0          0          0          0
OF25             828.00     0          0          0          0
OF28             830.00     0          0          0          0
X23              819.86     0          0          0          0
OF27             818.00     0          0          0          0
X57              867.17     0          0          0          0
X49              846.96     0          0          0          0
X41              845.60     0          0          0          0
OF15             815.00     0          0          0          0
OF8              804.00     0          0          0          0
I1A              811.17     0          0          0          0
OF14a            808.00     0          0          0          0
E68              809.00     0          0          0          0
OF14b            808.00     0          0          0          0
Z147             855.54     0          0          0          0
Z148             854.70     0          0          0          0
OF16a            850.00     0          0          0          0
H88              842.70     0          0          0          0
H90              857.80     0          0          0          0
J7               809.88     0          0          0          0
J3               854.28     0          0          0          0
J10              838.38     0          0          0          0
J12              868.48     0          0          0          0
J14              867.08     0          0          0          0
J18              891.79     0          0          0          0
J36              884.01     0          0          0          0
J30              866.96     0          0          0          0
J27              901.59     0          0          0          0
J13              871.88     0          0          0          0
J6               865.28     0          0          0          0
X35              847.86     0          0          0          0
L88              822.93     0          0          0          0
L84              823.63     0          0          0          0
E107             823.10     0          0          0          0
S71              850.82     0          0          0          0
BB1              856.70     0          0          0          0
BB21             885.00     0          0          0          0
BB24             883.90     0          0          0          0
BB32             885.50     0          0          0          0
BB29             885.90     0          0          0          0
BB27             884.60     0          0          0          0
BB40             880.85     0          0          0          0
BB26             884.12     0          0          0          0
AA13             866.30     0          0          0          0
AA9              860.60     0          0          0          0
AA2              858.50     0          0          0          0
AA14             877.00     0          0          0          0
AA18             873.32     0          0          0          0
AA25             885.60     0          0          0          0
AA22             887.34     0          0          0          0
AA19             873.90     0          0          0          0
AA84             883.10     0          0          0          0
AA82             871.80     0          0          0          0
AA52             889.20     0          0          0          0
AA42             888.10     0          0          0          0
AA37             888.30     0          0          0          0
AA51             882.60     0          0          0          0
AA49             883.00     0          0          0          0
AA48             885.00     0          0          0          0
AA46             884.50     0          0          0          0
AA44             886.80     0          0          0          0
AA89             879.00     0          0          0          0
AA87             882.60     0          0          0          0
AA55             884.10     0          0          0          0
AA53             887.65     0          0          0          0
AA123            887.53     0          0          0          0
AA122            885.96     0          0          0          0
AA118            887.69     0          0          0          0
AA105            887.16     0          0          0          0
AA148            879.00     0          0          0          0
AA147            876.25     0          0          0          0
AA145            871.75     0          0          0          0
AA144            870.00     0          0          0          0
AA90             884.26     0          0          0          0
CVPS             880.00     0          0          0          0
AA58             886.80     0          0          0          0
AA57             884.50     0          0          0          0
AA20             875.00     0          0          0          0
STORMPSOF        815.00     0          0          0          0
I9               821.90     0          0          0          0
I8               821.00     0          0          0          0
I4               811.78     0          0          0          0
I35              816.48     0          0          0          0
I32              811.68     0          0          0          0
I29              810.70     0          0          0          0
I114A            812.00     0          0          0          0
I31              811.00     0          0          0          0
H4               813.48     0          0          0          0
H5               812.96     0          0          0          0
H47              827.42     0          0          0          0
H45              830.39     0          0          0          0
H44              830.50     0          0          0          0
H49              826.45     0          0          0          0
H40              824.00     0          0          0          0
H36              833.10     0          0          0          0
H29              827.60     0          0          0          0
H23              819.70     0          0          0          0
H26              814.00     0          0          0          0
H8               813.00     0          0          0          0
H9               812.30     0          0          0          0
H7               811.00     0          0          0          0
H6               812.00     0          0          0          0
H227             808.93     0          0          0          0
H28              813.70     0          0          0          0
H21              824.00     0          0          0          0
H34              834.00     0          0          0          0
H31              829.00     0          0          0          0
H275             828.00     0          0          0          0
H38              830.21     0          0          0          0
F117             826.00     0          0          0          0
H65              830.95     0          0          0          0
H60              830.00     0          0          0          0
H59              832.00     0          0          0          0
H58              830.28     0          0          0          0
H68              832.65     0          0          0          0
H69              829.18     0          0          0          0
I55              831.57     0          0          0          0
I56              832.94     0          0          0          0
I81              844.00     0          0          0          0
I70              835.56     0          0          0          0
I69              835.78     0          0          0          0
I72              840.97     0          0          0          0
I64              833.75     0          0          0          0
I67              841.57     0          0          0          0
I65              833.75     0          0          0          0
I86              836.15     0          0          0          0
I90              843.27     0          0          0          0
I113             846.00     0          0          0          0
I101             846.04     0          0          0          0
H112             830.00     0          0          0          0
H108             829.60     0          0          0          0
H114             830.56     0          0          0          0
H113             830.00     0          0          0          0
K14              863.79     0          0          0          0
K25              878.12     0          0          0          0
Z153             862.50     0          0          0          0
Z146             856.37     0          0          0          0
Z151             859.19     0          0          0          0
X47              841.60     0          0          0          0
X45              829.88     0          0          0          0
X87              858.80     0          0          0          0
X86              856.76     0          0          0          0
X82              849.34     0          0          0          0
X83              850.00     0          0          0          0
X88              857.61     0          0          0          0
X78A             858.00     0          0          0          0
X70              856.88     0          0          0          0
X77              865.38     0          0          0          0
L5               824.76     0          0          0          0
L14              831.76     0          0          0          0
L12              823.06     0          0          0          0
L18              826.56     0          0          0          0
Q6               883.80     0          0          0          0
Q40              886.90     0          0          0          0
Q37              882.40     0          0          0          0
Q30              886.30     0          0          0          0
L117             855.33     0          0          0          0
L87              824.35     0          0          0          0
L135             824.83     0          0          0          0
L29              839.19     0          0          0          0
L32A             825.29     0          0          0          0
I99              841.43     0          0          0          0
L37              840.13     0          0          0          0
L35              839.76     0          0          0          0
L38              841.20     0          0          0          0
V16              865.30     0          0          0          0
V12              855.70     0          0          0          0
M58              864.17     0          0          0          0
M5               850.58     0          0          0          0
M4               850.00     0          0          0          0
P31              867.57     0          0          0          0
P28              856.70     0          0          0          0
P30              867.90     0          0          0          0
P76              894.30     0          0          0          0
P69              890.00     0          0          0          0
P64              879.00     0          0          0          0
P63              875.00     0          0          0          0
S88              905.20     0          0          0          0
S87              899.10     0          0          0          0
H175             856.97     0          0          0          0
H172             859.46     0          0          0          0
H248             858.73     0          0          0          0
B22              886.75     0          0          0          0
B18              894.82     0          0          0          0
B13              886.00     0          0          0          0
B11              890.70     0          0          0          0
A1               888.60     0          0          0          0
AA41             887.80     0          0          0          0
Anomatic         888.00     0          0          0          0
L4               822.50     0          0          0          0
B.Linen          823.00     0          0          0          0
C.Cleaners       826.00     0          0          0          0
A37              810.50     0          0          0          0
Components       811.00     0          0          0          0
D.Products       886.00     0          0          0          0
BoxUsa           886.00     0          0          0          0
TamrakDary       883.00     0          0          0          0
OrganicTeK       883.00     0          0          0          0
U.Veneer         883.20     0          0          0          0
Tennaco          860.00     0          0          0          0
Hospital         885.20     0          0          0          0
M.PowerWsh       857.00     0          0          0          0
N.ElctPltg       810.00     0          0          0          0
N.MedLab         857.00     0          0          0          0
OSU              860.00     0          0          0          0
OSU              866.00     0          0          0          0
Rockwell         850.00     0          0          0          0
I21              824.31     0          0          0          0
Tectum           827.00     0          0          0          0
P139             876.00     0          0          0          0
Y10              817.00     0          0          0          0
L1AA             821.62     0          0          0          0
WWTP1            805.40     0          0          0          0
W49              828.90     0          0          0          0
W9               832.15     0          0          0          0
X33              849.16     0          0          0          0
X38              845.96     0          0          0          0
cso16a           855.55     0          0          0          0
Z8               844.84     0          0          0          0
E73              811.00     0          0          0          0
E71              812.00     0          0          0          0
P1               831.50     0          0          0          0
X46              833.15     0          0          0          0
X1               821.36     0          0          0          0
Y5A              816.70     0          0          0          0
L53A             824.50     0          0          0          0
L44A             821.80     0          0          0          0
L41A             822.10     0          0          0          0
1623             823.47     0          0          0          0
L1               821.05     0          0          0          0
L5A              824.50     0          0          0          0
I15              826.91     0          0          0          0
H18              821.80     0          0          0          0
H13              814.28     0          0          0          0
E43              805.26     0          0          0          0
E60A             816.00     0          0          0          0
E63              807.50     0          0          0          0
E67              809.00     0          0          0          0
E69              809.00     0          0          0          0
K1A              816.00     0          0          0          0
X36              832.00     0          0          0          0
X23A             819.90     0          0          0          0
DD93             879.00     0          0          0          0
DD92             865.70     0          0          0          0
DD88             871.00     0          0          0          0
DD84             864.90     0          0          0          0
DD83             864.30     0          0          0          0
DD82             862.60     0          0          0          0
DD81             864.20     0          0          0          0
DD78             862.80     0          0          0          0
DD75             859.10     0          0          0          0
DD69             858.40     0          0          0          0
DD68             856.90     0          0          0          0
DD66             859.00     0          0          0          0
DD65             856.60     0          0          0          0
DD41             856.00     0          0          0          0
DD39             854.00     0          0          0          0
DD20             856.00     0          0          0          0
DD58             868.00     0          0          0          0
DD8              842.00     0          0          0          0