;; SWMM5 .inp converted from XPSWMM .xp file
;; Generated by XPSWMM Card Reader
;; Source format: XP_CARD | Original title: Oak Park - Macro System (Last Revision: 11/03/92)

[TITLE]
;;Project Title/Notes
Oak Park - Macro System (Last Revision: 11/03/92)

[OPTIONS]
FLOW_UNITS           CFS
INFILTRATION         HORTON
FLOW_ROUTING         DYNWAVE
LINK_OFFSETS         DEPTH
MIN_SLOPE            0.0
ALLOW_PONDING        NO
SKIP_STEADY_STATE    NO
ROUTING_STEP         00:00:30
VARIABLE_STEP        0.75
INERTIAL_DAMPING     PARTIAL
NORMAL_FLOW_LIMITED  BOTH
MAX_TRIALS           50

[JUNCTIONS]
;;Name           Elev       MaxDepth   InitDepth  SurDepth   Aponded
;;-------------- ---------- ---------- ---------- ---------- ----------
10               38.80      0          0          0          0
18044            39.00      0          0          0          0
12               39.00      0          0          0          0
18054            39.00      0          0          0          0
13               39.00      0          0          0          0
18060            39.00      0          0          0          0
14               39.50      0          0          0          0
18472            39.50      0          0          0          0
15               40.50      0          0          0          0
18881            40.50      0          0          0          0
17               42.20      0          0          0          0
17287            42.20      0          0          0          0
18               38.50      0          0          0          0
16410            38.50      0          0          0          0
16412            39.20      0          0          0          0
19               39.20      0          0          0          0
13666            50.00      0          0          0          0
20               50.00      0          0          0          0
12881            47.90      0          0          0          0
23               47.90      0          0          0          0
24               39.70      0          0          0          0
14809            39.70      0          0          0          0
25               39.50      0          0          0          0
14811            39.50      0          0          0          0
14812            40.50      0          0          0          0
26               40.50      0          0          0          0
27               40.00      0          0          0          0
14833            40.00      0          0          0          0
28               40.50      0          0          0          0
14839            40.50      0          0          0          0
30               39.50      0          0          0          0
13200            39.50      0          0          0          0
31               38.50      0          0          0          0
18027            38.50      0          0          0          0
32               39.00      0          0          0          0
18036            39.00      0          0          0          0
13642            41.10      0          0          0          0
34               41.10      0          0          0          0
16442            39.00      0          0          0          0
35               39.00      0          0          0          0
18000            38.00      0          0          0          0
1                38.20      0          0          0          0
18003            42.10      0          0          0          0
18009            38.90      0          0          0          0
18012            38.90      0          0          0          0
18018            38.40      0          0          0          0
18024            39.00      0          0          0          0
18042            39.00      0          0          0          0
17954            38.70      0          0          0          0
18046            38.60      0          0          0          0
17960            38.80      0          0          0          0
18072            39.50      0          0          0          0
18081            41.10      0          0          0          0
18087            40.80      0          0          0          0
18887            41.50      0          0          0          0
16860            39.50      0          0          0          0
15360            42.50      0          0          0          0
29               42.50      0          0          0          0
13760            47.50      0          0          0          0
14857            42.50      0          0          0          0
11660            50.50      0          0          0          0
33               50.50      0          0          0          0
16868            39.50      0          0          0          0
16881            42.00      0          0          0          0
17690            41.30      0          0          0          0
19612            37.40      0          0          0          0
19645            38.30      0          0          0          0
16436            39.50      0          0          0          0
11               38.80      0          0          0          0
16854            38.70      0          0          0          0
16400            38.60      0          0          0          0
2                38.60      0          0          0          0
16406            40.00      0          0          0          0
16427            38.80      0          0          0          0
16445            40.10      0          0          0          0
13630            40.30      0          0          0          0
10830            41.50      0          0          0          0
13633            40.50      0          0          0          0
13636            42.80      0          0          0          0
13639            41.50      0          0          0          0
13648            42.50      0          0          0          0
13654            42.60      0          0          0          0
13659            44.50      0          0          0          0
21               50.00      0          0          0          0
12867            50.60      0          0          0          0
22               49.90      0          0          0          0
12884            49.00      0          0          0          0
10836            42.50      0          0          0          0
14800            39.00      0          0          0          0
3                39.00      0          0          0          0
14806            38.20      0          0          0          0
14815            39.70      0          0          0          0
14824            39.70      0          0          0          0
14842            39.90      0          0          0          0
14848            42.10      0          0          0          0
14854            42.50      0          0          0          0
14866            48.20      0          0          0          0
14878            50.00      0          0          0          0
14881            48.20      0          0          0          0
14884            49.10      0          0          0          0
14890            53.40      0          0          0          0
13293            49.50      0          0          0          0
11600            39.80      0          0          0          0
13206            39.50      0          0          0          0
13209            39.80      0          0          0          0
11609            40.20      0          0          0          0
13212            39.70      0          0          0          0
13615            39.80      0          0          0          0
13215            39.90      0          0          0          0
12317            40.00      0          0          0          0
11221            41.00      0          0          0          0
11224            41.00      0          0          0          0
10833            42.00      0          0          0          0
12878            49.90      0          0          0          0
12478            49.50      0          0          0          0
12481            49.50      0          0          0          0
10881            49.30      0          0          0          0
10887            49.50      0          0          0          0
10490            48.70      0          0          0          0
16               42.00      0          0          0          0
10066            50.00      0          0          0          0
4                49.30      0          0          0          0
10866            50.50      0          0          0          0
11666            50.50      0          0          0          0
12866            50.60      0          0          0          0

[CONDUITS]
;;Name           From             To               Length     Roughness  InOffset   OutOffset  InitFlow   MaxFlow
;;-------------- ---------------- ---------------- ---------- ---------- ---------- ---------- ---------- ----------
10               10               18044            250.00     0.0150     14.41      2.50       0          0
12               12               18054            250.00     0.0150     25.50      14.84      0          0
13               13               18060            250.00     0.0150     28.17      12.42      0          0
14               14               18472            250.00     0.0150     27.41      20.74      0          0
15               15               18881            250.00     0.0150     30.77      24.66      0          0
17               17               17287            250.00     0.0150     29.11      26.32      0          0
18               18               16410            250.00     0.0150     -1.86      24.25      0          0
19               16412            19               250.00     0.0150     24.40      -1.74      0          0
20               13666            20               250.00     0.0150     36.64      22.22      0          0
23               12881            23               250.00     0.0150     38.70      27.82      0          0
24               24               14809            250.00     0.0150     22.00      11.00      0          0
25               25               14811            250.00     0.0150     -4.13      11.38      0          0
26               14812            26               250.00     0.0150     11.68      -3.81      0          0
27               27               14833            250.00     0.0150     27.50      18.46      0          0
28               28               14839            250.00     0.0150     28.63      19.72      0          0
30               30               13200            250.00     0.0150     24.35      10.43      0          0
31               31               18027            250.00     0.0150     27.20      -2.60      0          0
32               32               18036            250.00     0.0150     21.04      -1.80      0          0
34               13642            34               250.00     0.0150     31.20      19.11      0          0
35               16442            35               250.00     0.0150     26.73      19.77      0          0
1000             18000            1                250.00     0.0150     -10.53     -10.57     0          0
1100             18003            18000            630.00     0.0150     -10.37     -10.53     0          0
1110             18009            18003            1325.00    0.0150     -10.03     -10.37     0          0
1115             18012            18009            710.00     0.0150     -9.87      -10.03     0          0
1120             18018            18012            1325.00    0.0150     -5.20      -5.86      0          0
1125             18024            18018            665.00     0.0150     -4.87      -5.20      0          0
1127             18027            18024            600.00     0.0150     -4.54      -4.87      0          0
1130             18036            18027            1345.00    0.0150     -3.80      -4.54      0          0
1140             18042            18036            1240.00    0.0150     -3.08      -3.80      0          0
1145             18044            18042            400.00     0.0150     -3.08      -3.25      0          0
1155             17954            18046            840.00     0.0150     27.96      27.60      0          0
1160             17960            17954            475.00     0.0150     28.17      27.96      0          0
1165             18072            13               1695.00    0.0150     28.85      28.17      0          0
1170             18081            18072            1325.00    0.0150     30.02      28.85      0          0
1175             18087            18081            1395.00    0.0150     30.55      30.02      0          0
1205             18472            18060            2145.00    0.0150     18.42      12.42      0          0
1210             18881            18472            1565.00    0.0150     23.66      18.65      0          0
1215             18887            18881            1350.00    0.0150     25.55      23.66      0          0
1220             18072            14               470.00     0.0150     28.85      27.41      0          0
1300             18054            18044            840.00     0.0150     7.84       6.00       0          0
1305             18060            18054            475.00     0.0150     8.75       7.84       0          0
1310             16860            18060            925.00     0.0150     11.04      9.25       0          0
1315             15360            16860            1360.00    0.0150     13.84      11.49      0          0
1320             29               15360            450.00     0.0150     16.17      15.04      0          0
1325             13760            14857            925.00     0.0150     22.91      19.50      0          0
1330             11660            13760            2160.00    0.0150     31.69      22.91      0          0
1340             33               11660            785.00     0.0150     34.46      32.10      0          0
1400             16868            16860            1030.00    0.0150     16.75      14.54      0          0
1405             16881            16868            1945.00    0.0150     21.06      17.15      0          0
1410             17287            16881            1355.00    0.0150     24.57      21.78      0          0
1415             18087            17               700.00     0.0150     31.79      29.11      0          0
1420             17690            17287            730.00     0.0150     26.85      25.07      0          0
1500             19612            18012            1300.00    0.0150     -5.22      -5.87      0          0
1600             19645            18044            1300.00    0.0150     -0.93      -1.58      0          0
1700             16436            32               1350.00    0.0150     25.93      21.04      0          0
1800             11               10               250.00     0.0150     14.48      14.41      0          0
1900             16854            12               940.00     0.0150     28.78      25.95      0          0
2000             16400            2                670.00     0.0150     23.63      23.38      0          0
2100             16406            16400            1305.00    0.0150     23.96      23.63      0          0
2105             16410            16406            660.00     0.0150     24.25      23.96      0          0
2106             2108             18               650.00     0.0150     -1.74      -1.86      0          0
2110             16427            16412            2650.00    0.0150     24.97      24.40      0          0
2115             16436            16427            1260.00    0.0150     25.93      25.10      0          0
2120             16442            16436            1295.00    0.0150     26.73      25.95      0          0
2125             16445            16442            510.00     0.0150     27.45      26.73      0          0
2130             16854            16445            1160.00    0.0150     28.78      27.45      0          0
2200             13630            16427            2290.00    0.0150     27.25      24.97      0          0
2210             10830            13630            2545.00    0.0150     32.25      28.18      0          0
2300             18046            16445            1370.00    0.0150     27.60      27.40      0          0
2400             13633            13630            640.00     0.0150     28.79      28.00      0          0
2405             13636            13633            630.00     0.0150     29.01      28.79      0          0
2410             13639            13636            640.00     0.0150     30.14      29.01      0          0
2415             13642            13639            640.00     0.0150     30.45      30.14      0          0
2420             13648            13642            665.00     0.0150     30.76      30.45      0          0
2425             13654            13648            565.00     0.0150     32.47      30.76      0          0
2430             13659            13654            490.00     0.0150     33.63      32.47      0          0
2435             21               13659            1020.00    0.0150     36.91      33.63      0          0
2440             12867            13666            850.00     0.0150     37.80      36.99      0          0
2445             22               12867            1330.00    0.0150     38.02      37.80      0          0
2450             12881            22               675.00     0.0150     38.70      38.25      0          0
2455             12884            12881            650.00     0.0150     38.75      38.70      0          0
2500             10836            13636            2600.00    0.0150     34.85      30.80      0          0
2600             31               16427            1350.00    0.0150     26.60      25.10      0          0
3000             14800            3                670.00     0.0150     7.83       5.97       0          0
3100             14806            14800            1305.00    0.0150     10.33      9.00       0          0
3105             14809            14806            660.00     0.0150     11.00      10.33      0          0
3110             14811            14809            350.00     0.0150     11.38      11.00      0          0
3112             26               25               350.00     0.0150     -3.81      -4.13      0          0
3115             14815            14812            650.00     0.0150     12.30      11.68      0          0
3120             14824            14815            1320.00    0.0150     13.63      12.30      0          0
3125             14833            14824            1300.00    0.0150     14.96      13.63      0          0
3130             14839            14833            1270.00    0.0150     16.22      14.96      0          0
3135             14842            14839            640.00     0.0150     16.87      16.22      0          0
3140             14848            14842            590.00     0.0150     17.46      16.87      0          0
3145             14854            14848            575.00     0.0150     18.04      17.46      0          0
3150             14857            14854            550.00     0.0150     18.59      18.04      0          0
3155             14866            14857            1020.00    0.0150     19.63      18.59      0          0
3160             14878            14866            1330.00    0.0150     20.41      19.63      0          0
3165             14881            14878            675.00     0.0150     21.96      20.41      0          0
3170             14884            14881            650.00     0.0150     22.74      21.96      0          0
3175             14890            14884            1415.00    0.0150     24.51      22.74      0          0
3180             13293            14890            1940.00    0.0150     27.08      24.51      0          0
3200             13200            14800            1380.00    0.0150     8.58       7.83       0          0
3210             11600            13200            1365.00    0.0150     9.46       8.58       0          0
3250             13206            30               1305.00    0.0150     26.67      25.63      0          0
3260             13209            13206            660.00     0.0150     27.34      26.67      0          0
3300             13209            24               1380.00    0.0150     24.45      22.00      0          0
3310             11609            13209            1365.00    0.0150     27.42      24.85      0          0
3400             13212            14812            1390.00    0.0150     15.38      13.03      0          0
3450             13615            14815            1010.00    0.0150     18.67      16.53      0          0
3455             13215            13615            370.00     0.0150     19.32      18.67      0          0
3460             12317            13215            1300.00    0.0150     22.00      19.32      0          0
3465             11221            12317            1450.00    0.0150     25.82      23.00      0          0
3470             11224            11221            515.00     0.0150     28.04      26.35      0          0
3475             10830            11224            790.00     0.0150     29.71      28.04      0          0
3480             10833            10830            640.00     0.0150     30.80      29.71      0          0
3485             10836            10833            640.00     0.0150     32.32      31.20      0          0
3500             13633            27               925.00     0.0150     28.79      27.50      0          0
3550             13639            28               925.00     0.0150     30.14      28.63      0          0
3600             34               14842            925.00     0.0150     19.11      17.87      0          0
3650             16442            14842            1365.00    0.0150     19.77      17.87      0          0
3700             20               14866            920.00     0.0150     22.22      20.88      0          0
3750             12878            14878            1755.00    0.0150     28.50      23.92      0          0
3755             12478            12878            395.00     0.0150     29.36      28.50      0          0
3760             12481            12478            675.00     0.0150     30.51      29.36      0          0
3765             10881            12481            1210.00    0.0150     32.04      30.51      0          0
3770             10887            10881            1300.00    0.0150     32.96      32.04      0          0
3775             10490            10887            1050.00    0.0150     35.60      33.46      0          0
3800             23               14881            1755.00    0.0150     27.82      24.35      0          0
3850             16               14881            1720.00    0.0150     27.31      24.35      0          0
3855             18081            16               825.00     0.0150     29.41      27.31      0          0
3860             15               18081            700.00     0.0150     30.77      29.68      0          0
3900             17690            14890            2220.00    0.0150     27.31      24.51      0          0
4000             10066            4                700.00     0.0150     34.78      34.39      0          0
4100             10866            10066            685.00     0.0150     35.14      34.78      0          0
4110             11666            10866            690.00     0.0150     35.40      35.14      0          0
4120             12866            11666            970.00     0.0150     36.14      35.40      0          0
4125             12867            12866            250.00     0.0150     37.80      36.14      0          0
4130             13666            12866            850.00     0.0150     36.64      36.14      0          0

[WEIRS]
;;Name           From             To               Type       CrestHt    Qcoeff     Gated    EndCon   EndCoeff   Surcharge
;;-------------- ---------------- ---------------- ---------- ---------- ---------- -------- -------- ---------- ----------
MUL2             18046            11               V-NOTCH    28.27      1.840      NO       0        0          YES
MUL3             16               16881            V-NOTCH    27.81      1.840      NO       0        0          YES
MUL4             13666            21               TRANSVERSE 39.39      1.840      NO       0        0          YES
MUL5             22               12878            V-NOTCH    39.02      1.840      NO       0        0          YES
MUL6             14857            29               V-NOTCH    19.50      1.840      NO       0        0          YES
MUL7             11666            33               V-NOTCH    36.30      1.840      NO       0        0          YES

[XSECTIONS]
;;Link           Shape        Geom1      Geom2      Geom3      Geom4      Barrels
;;-------------- ------------ ---------- ---------- ---------- ---------- ----------
10               CIRCULAR     5.00       5.00       0          0          1
12               CIRCULAR     2.00       2.00       0          0          1
13               CIRCULAR     3.75       3.75       0          0          1
14               CIRCULAR     2.00       2.00       0          0          1
15               CIRCULAR     3.00       3.00       0          0          1
17               CIRCULAR     2.25       2.25       0          0          1
18               CIRCULAR     7.00       7.00       0          0          1
19               CIRCULAR     7.00       7.00       0          0          1
20               CIRCULAR     4.17       4.17       0          0          1
23               CIRCULAR     3.67       3.67       0          0          1
24               CIRCULAR     4.50       4.50       0          0          1
25               HORSESHOE    9.17       7.33       0          0          1
26               HORSESHOE    8.83       7.00       0          0          1
27               CIRCULAR     4.00       4.00       0          0          1
28               CIRCULAR     3.00       3.00       0          0          1
30               CIRCULAR     3.00       3.00       0          0          1
31               CIRCULAR     4.50       4.50       0          0          1
32               CIRCULAR     3.00       3.00       0          0          1
34               CIRCULAR     4.17       4.17       0          0          1
35               CIRCULAR     4.33       4.33       0          0          1
1000             CIRCULAR     15.00      15.00      0          0          1
1100             CIRCULAR     15.00      15.00      0          0          1
1110             CIRCULAR     15.00      15.00      0          0          1
1115             CIRCULAR     15.00      15.00      0          0          1
1120             CIRCULAR     11.00      11.00      0          0          1
1125             CIRCULAR     11.00      11.00      0          0          1
1127             CIRCULAR     11.00      11.00      0          0          1
1130             CIRCULAR     11.00      11.00      0          0          1
1140             CIRCULAR     11.00      11.00      0          0          1
1145             CIRCULAR     11.00      11.00      0          0          1
1155             CIRCULAR     3.75       3.75       0          0          1
1160             CIRCULAR     3.75       3.75       0          0          1
1165             CIRCULAR     3.75       3.75       0          0          1
1170             CIRCULAR     3.00       3.00       0          0          1
1175             CIRCULAR     2.75       2.75       0          0          1
1205             CIRCULAR     5.00       5.00       0          0          1
1210             CIRCULAR     4.00       4.00       0          0          1
1215             CIRCULAR     4.00       4.00       0          0          1
1220             CIRCULAR     2.00       2.00       0          0          1
1300             CIRCULAR     9.00       9.00       0          0          1
1305             CIRCULAR     9.00       9.00       0          0          1
1310             CIRCULAR     8.50       8.50       0          0          1
1315             CIRCULAR     8.50       8.50       0          0          1
1320             CIRCULAR     6.50       6.50       0          0          1
1325             CIRCULAR     5.00       5.00       0          0          1
1330             CIRCULAR     4.50       4.50       0          0          1
1340             CIRCULAR     4.00       4.00       0          0          1
1400             CIRCULAR     5.00       5.00       0          0          1
1405             CIRCULAR     4.50       4.50       0          0          1
1410             CIRCULAR     4.00       4.00       0          0          1
1415             CIRCULAR     2.25       2.25       0          0          1
1420             CIRCULAR     3.50       3.50       0          0          1
1500             CIRCULAR     8.00       8.00       0          0          1
1600             CIRCULAR     8.00       8.00       0          0          1
1700             CIRCULAR     3.00       3.00       0          0          1
1800             CIRCULAR     5.00       5.00       0          0          1
1900             CIRCULAR     2.00       2.00       0          0          1
2000             CIRCULAR     7.00       7.00       0          0          1
2100             CIRCULAR     7.00       7.00       0          0          1
2105             CIRCULAR     7.00       7.00       0          0          1
2106             CIRCULAR     7.00       7.00       0          0          1
2110             CIRCULAR     7.00       7.00       0          0          1
2115             CIRCULAR     4.33       4.33       0          0          1
2120             CIRCULAR     4.33       4.33       0          0          1
2125             CIRCULAR     4.33       4.33       0          0          1