;; SWMM5 .inp converted from XPSWMM .xp file
;; Generated by XPSWMM Card Reader
;; Source format: XP_CARD | Original title: Wiltse Flats Stormwater Analysis

[TITLE]
;;Project Title/Notes
Wiltse Flats Stormwater Analysis

[OPTIONS]
FLOW_UNITS           CMS
INFILTRATION         HORTON
FLOW_ROUTING         DYNWAVE
LINK_OFFSETS         DEPTH
MIN_SLOPE            0.0
ALLOW_PONDING        NO
SKIP_STEADY_STATE    NO
ROUTING_STEP         00:00:15
VARIABLE_STEP        0.75
INERTIAL_DAMPING     PARTIAL
NORMAL_FLOW_LIMITED  BOTH
MAX_TRIALS           50

[JUNCTIONS]
;;Name           Elev       MaxDepth   InitDepth  SurDepth   Aponded
;;-------------- ---------- ---------- ---------- ---------- ----------
19               419.90     0          0          0          0
17               419.40     0          0          0          0
16               422.00     0          0          0          0
15               423.45     0          0          0          0
18               423.60     0          0          0          0
14               423.80     0          0          0          0
13               419.30     0          0          0          0
12               410.20     0          0          0          0
11               404.10     0          0          0          0
10               401.20     0          0          0          0
9                402.00     0          0          0          0
8                400.00     0          0          0          0
7                401.50     0          0          0          0
6                401.20     0          0          0          0
Outfall          399.15     0          0          0          0

[CONDUITS]
;;Name           From             To               Length     Roughness  InOffset   OutOffset  InitFlow   MaxFlow
;;-------------- ---------------- ---------------- ---------- ---------- ---------- ---------- ---------- ----------
24               19               17               20.00      0.0130     417.90     417.80     0          0
22               17               16               61.00      0.0130     417.80     417.69     0          0
28               16               15               52.50      0.0130     417.69     417.60     0          0
30               18               15               12.50      0.0130     417.66     417.60     0          0
51               15               14               125.96     0.0130     417.60     417.50     0          0
54               14               13               115.00     0.0130     417.50     417.30     0          0
56               13               12               153.00     0.0130     417.30     408.40     0          0
58               12               11               134.50     0.0130     408.40     402.40     0          0
62               11               10               89.28      0.0130     401.80     399.40     0          0
63               10               9                81.50      0.0130     399.30     398.90     0          0
64               9                8                131.00     0.0130     398.90     398.85     0          0
69               6                Outfall          12.00      0.0130     398.43     398.40     0          0
71               7                6                70.79      0.0130     398.57     398.43     0          0
72               8                7                106.78     0.0130     398.85     398.57     0          0

[XSECTIONS]
;;Link           Shape        Geom1      Geom2      Geom3      Geom4      Barrels
;;-------------- ------------ ---------- ---------- ---------- ---------- ----------
24               CIRCULAR     0.45       0          0          0          1
22               CIRCULAR     0.75       0          0          0          1
28               CIRCULAR     0.75       0          0          0          1
30               CIRCULAR     0.60       0          0          0          1
51               CIRCULAR     0.75       0          0          0          1
54               CIRCULAR     0.75       0          0          0          1
56               CIRCULAR     0.60       0          0          0          1
58               CIRCULAR     0.60       0          0          0          1
62               CIRCULAR     0.60       0          0          0          1
63               CIRCULAR     0.60       0          0          0          1
64               CIRCULAR     0.75       0          0          0          1
69               CIRCULAR     0.75       0          0          0          1
71               CIRCULAR     0.75       0          0          0          1
72               CIRCULAR     0.75       0          0          0          1

[LOSSES]
;;Link           Inlet      Outlet     Average    Flap Gate
;;-------------- ---------- ---------- ---------- ----------
24               0          0          0          NO
22               0          0          0          NO
28               0          0          0          NO
30               0          0          0          NO
51               0          0          0          NO
54               0          0          0          NO
56               0          0          0          NO
58               0          0          0          NO
62               0          0          0          NO
63               0          0          0          NO
64               0          0          0          NO
69               0          0          0          NO
71               0          0          0          NO
72               0          0          0          NO

[COORDINATES]
;;Node           X-Coord            Y-Coord
;;-------------- ------------------ ------------------
19               -5482430.60        313737.02         
17               -5482436.47        313730.90         
16               -5482499.74        313730.43         
15               -5482548.58        313732.38         
18               -5482551.71        313746.14         
14               -5482663.86        313769.78         
13               -5482746.08        313867.87         
12               -5482868.96        313944.26         
11               -5483011.07        313985.02         
10               -5483072.08        313959.16         
9                -5483156.54        313922.68         
8                -5483260.40        313845.37         
7                -5483361.45        313851.03         
6                -5483437.21        313855.80         
Outfall          -5483443.15        313862.14         

[MAP]
DIMENSIONS -5483443.15 313730.43 -5482430.60 313985.02
Units      None

[REPORT]
INPUT            YES
SUBCATCHMENTS    ALL
NODES            ALL
LINKS            ALL



