;; SWMM5 .inp converted from XPSWMM .xp file
;; Generated by XPSWMM Card Reader
;; Source format: XP_CARD | Original title: (none)

[TITLE]
;;Project Title/Notes
Converted from XPSWMM .xp file

[OPTIONS]
FLOW_UNITS           CFS
INFILTRATION         HORTON
FLOW_ROUTING         DYNWAVE
LINK_OFFSETS         DEPTH
MIN_SLOPE            0.0
ALLOW_PONDING        NO
SKIP_STEADY_STATE    NO
ROUTING_STEP         00:00:03
VARIABLE_STEP        0.75
INERTIAL_DAMPING     PARTIAL
NORMAL_FLOW_LIMITED  BOTH

[JUNCTIONS]
;;Name           Elev       MaxDepth   InitDepth  SurDepth   Aponded
;;-------------- ---------- ---------- ---------- ---------- ----------
0                161.50     0          0          0          0
0                161.50     0          0          0          0
0                160.00     0          0          0          0
0                157.00     0          0          0          0
0                162.93     0          0          0          0
0                163.29     0          0          0          0
0                163.20     0          0          0          0
0                162.10     0          0          0          0
0                163.55     0          0          0          0
0                163.63     0          0          0          0
0                163.25     0          0          0          0
0                162.28     0          0          0          0
0                164.46     0          0          0          0
0                164.38     0          0          0          0
0                164.46     0          0          0          0
0                162.17     0          0          0          0
0                160.98     0          0          0          0

[CONDUITS]
;;Name           From             To               Length     Roughness  InOffset   OutOffset  InitFlow   MaxFlow
;;-------------- ---------------- ---------------- ---------- ---------- ---------- ---------- ---------- ----------
205              0                0                110.00     0.0130     150.00     149.50     0          0
202              0                0                217.00     0.0130     150.22     150.00     0          0
209              0                0                152.00     0.0130     150.28     150.00     0          0
211              0                0                137.00     0.0130     150.53     150.28     0          0
213              0                0                67.00      0.0130     150.65     150.53     0          0
215              0                0                53.00      0.0130     151.56     151.40     0          0
217              0                0                106.00     0.0130     151.83     151.56     0          0
219              0                0                60.00      0.0130     151.98     151.83     0          0
221              0                0                58.00      0.0130     155.10     155.00     0          0
223              0                0                12.00      0.0130     152.00     151.98     0          0
225              0                0                128.00     0.0130     153.29     153.06     0          0
226              0                0                7.00       0.0130     153.30     153.29     0          0
229              0                0                178.00     0.0130     153.62     153.30     0          0
231              0                0                60.00      0.0130     153.73     153.62     0          0
233              0                0                133.00     0.0130     155.74     155.48     0          0

[WEIRS]
;;Name           From             To               Type       CrestHt    Qcoeff     Gated    EndCon   EndCoeff   Surcharge
;;-------------- ---------------- ---------------- ---------- ---------- ---------- -------- -------- ---------- ----------
203              0                0                TRANSVERSE 157.00     1.840      NO       0        0          YES

[XSECTIONS]
;;Link           Shape        Geom1      Geom2      Geom3      Geom4      Barrels
;;-------------- ------------ ---------- ---------- ---------- ---------- ----------
205              CIRCULAR     4.00       0          0          0          3
202              RECT_CLOSED  4.00       8.00       0          0          2
209              CIRCULAR     4.00       0          0          0          1
211              CIRCULAR     4.00       0          0          0          1
213              CIRCULAR     4.00       0          0          0          1
215              CIRCULAR     3.00       0          0          0          1
217              CIRCULAR     3.00       0          0          0          1
219              CIRCULAR     3.00       0          0          0          1
221              CIRCULAR     2.00       0          0          0          1
223              CIRCULAR     3.00       0          0          0          1
225              CIRCULAR     3.00       0          0          0          1
226              CIRCULAR     3.00       0          0          0          1
229              CIRCULAR     3.00       0          0          0          1
231              CIRCULAR     3.00       0          0          0          1
233              CIRCULAR     2.50       0          0          0          1
203              RECT_OPEN    0          23.00      0          0          

[LOSSES]
;;Link           Inlet      Outlet     Average    Flap Gate
;;-------------- ---------- ---------- ---------- ----------
205              0          0          0          NO
202              0          0          0          NO
209              0          0          0          NO
211              0          0          0          NO
213              0          0          0          NO
215              0          0          0          NO
217              0          0          0          NO
219              0          0          0          NO
221              0          0          0          NO
223              0          0          0          NO
225              0          0          0          NO
226              0          0          0          NO
229              0          0          0          NO
231              0          0          0          NO
233              0          0          0          NO

[COORDINATES]
;;Node           X-Coord            Y-Coord
;;-------------- ------------------ ------------------
0                -13971049.46       3053493.14        
0                -13971067.86       3054191.46        
0                -13971069.39       3054473.75        
0                -13971060.48       3054357.50        
0                -13971228.00       3053487.77        
0                -13971369.98       3053520.01        
0                -13971422.25       3053553.31        
0                -13971427.96       3053481.82        
0                -13971439.23       3053397.44        
0                -13971433.69       3053339.13        
0                -13971422.58       3053285.61        
0                -13971449.37       3053337.30        
0                -13971563.90       3053328.04        
0                -13971592.92       3053322.60        
0                -13971755.28       3053314.61        
0                -13971764.56       3053377.15        
0                -13971889.35       3053377.81        

[MAP]
DIMENSIONS -13971889.35 3053285.61 -13971049.46 3054473.75
Units      None

[REPORT]
INPUT            YES
SUBCATCHMENTS    ALL
NODES            ALL
LINKS            ALL



