;; SWMM5 .inp converted from XPSWMM .xp file
;; Generated by XPSWMM Card Reader
;; Source format: XP_CARD | Original title: (none)

[TITLE]
;;Project Title/Notes
Converted from XPSWMM .xp file

[OPTIONS]
FLOW_UNITS           CMS
INFILTRATION         HORTON
FLOW_ROUTING         DYNWAVE
LINK_OFFSETS         DEPTH
MIN_SLOPE            0.0
ALLOW_PONDING        NO
SKIP_STEADY_STATE    NO
ROUTING_STEP         00:00:15
VARIABLE_STEP        0.75
INERTIAL_DAMPING     PARTIAL
NORMAL_FLOW_LIMITED  BOTH
MAX_TRIALS           50

[JUNCTIONS]
;;Name           Elev       MaxDepth   InitDepth  SurDepth   Aponded
;;-------------- ---------- ---------- ---------- ---------- ----------
1                195.36     0          0          0          0
13               194.95     0          0          0          0
15               192.30     0          0          0          0
29               190.32     0          0          0          0
31               190.30     0          0          0          0
33               189.64     0          0          0          0
35               187.41     0          0          0          0
17               192.16     0          0          0          0
3                195.10     0          0          0          0
5                194.80     0          0          0          0
7                194.80     0          0          0          0
9                195.35     0          0          0          0
11               195.00     0          0          0          0
19               191.40     0          0          0          0
21               192.83     0          0          0          0
23               192.70     0          0          0          0
25               190.60     0          0          0          0
27               190.22     0          0          0          0
37               192.55     0          0          0          0

[CONDUITS]
;;Name           From             To               Length     Roughness  InOffset   OutOffset  InitFlow   MaxFlow
;;-------------- ---------------- ---------------- ---------- ---------- ---------- ---------- ---------- ----------
14               13               15               148.00     0.0140     190.45     187.99     0          0
30               29               31               15.00      0.0220     187.06     186.22     0          0
32               31               33               31.00      0.0140     186.22     185.44     0          0
34               33               35               25.00      0.0250     185.44     184.91     0          0
16               15               17               36.00      0.0250     188.80     188.75     0          0
2                1                3                10.00      0.0250     192.25     192.05     0          0
4                3                5                10.00      0.0250     192.05     191.55     0          0
6                5                7                10.00      0.0250     191.55     191.30     0          0
8                7                9                10.00      0.0250     191.30     190.85     0          0
10               9                11               10.00      0.0250     190.85     190.45     0          0
12               11               13               2.00       0.0250     190.45     190.45     0          0
18               17               19               20.00      0.0280     188.75     188.24     0          0
20               19               21               30.00      0.0280     188.24     188.03     0          0
22               21               23               20.00      0.0280     188.03     187.59     0          0
24               23               25               15.00      0.0260     187.59     187.55     0          0
26               25               27               10.00      0.0220     187.55     187.49     0          0
28               27               29               20.00      0.0220     187.49     187.06     0          0
36               37               17               30.00      0.0250     190.05     188.75     0          0

[XSECTIONS]
;;Link           Shape        Geom1      Geom2      Geom3      Geom4      Barrels
;;-------------- ------------ ---------- ---------- ---------- ---------- ----------
14               CIRCULAR     2.50       4.80       0          0          1
30               IRREGULAR    2.35       3.80       0          0          1
32               RECT_CLOSED  2.30       4.30       0          0          1
34               TRAPEZOIDAL  2.50       4.30       0          0          1
16               IRREGULAR    2.50       6.30       0          0          1
2                IRREGULAR    2.00       9.20       0          0          1
4                IRREGULAR    2.00       6138.90    0          0          1
6                IRREGULAR    2.85       5.60       0          0          1
8                IRREGULAR    3.50       5899.80    0          0          1
10               IRREGULAR    4.10       2.60       0          0          1
12               TRAPEZOIDAL  4.50       3.00       0          0          1
18               IRREGULAR    2.50       2.00       0          0          1
20               IRREGULAR    2.49       1.50       0          0          1
22               IRREGULAR    2.40       4.60       0          0          1
24               IRREGULAR    2.50       2.80       0          0          1
26               IRREGULAR    2.40       2.20       0          0          1
28               IRREGULAR    1.70       5.80       0          0          1
36               TRAPEZOIDAL  2.50       2.50       0          0          1

[LOSSES]
;;Link           Inlet      Outlet     Average    Flap Gate
;;-------------- ---------- ---------- ---------- ----------
14               0          0          0          NO
30               0          0          0          NO
32               0          0          0          NO
34               0          0          0          NO
16               0          0          0          NO
2                0          0          0          NO
4                0          0          0          NO
6                0          0          0          NO
8                0          0          0          NO
10               0          0          0          NO
12               0          0          0          NO
18               0          0          0          NO
20               0          0          0          NO
22               0          0          0          NO
24               0          0          0          NO
26               0          0          0          NO
28               0          0          0          NO
36               0          0          0          NO

[COORDINATES]
;;Node           X-Coord            Y-Coord
;;-------------- ------------------ ------------------
1                3311621.36         -11882.36         
13               3311673.65         -11868.04         
15               3311815.45         -11837.08         
29               3311915.76         -11737.77         
31               3311913.34         -11726.07         
33               3311906.31         -11695.58         
35               3311899.05         -11665.90         
17               3311841.46         -11824.06         
3                3311630.75         -11878.43         
5                3311639.22         -11876.50         
7                3311648.64         -11873.22         
9                3311656.56         -11871.02         
11               3311669.01         -11868.25         
19               3311868.71         -11807.35         
21               3311892.25         -11794.61         
23               3311908.53         -11779.40         
25               3311917.60         -11761.52         
27               3311917.72         -11753.13         
37               3311841.11         -11856.63         

[MAP]
DIMENSIONS 3311621.36 -11882.36 3311917.72 -11665.90
Units      None

[REPORT]
INPUT            YES
SUBCATCHMENTS    ALL
NODES            ALL
LINKS            ALL



