;; SWMM5 .inp converted from XPSWMM .xp file
;; Generated by XPSWMM Card Reader
;; Source format: XP_CARD | Original title: 100 YR SYNTHETIC STORM,- 10 MIN INTERVAL;EXISTING CONDITIONS

[TITLE]
;;Project Title/Notes
100 YR SYNTHETIC STORM,- 10 MIN INTERVAL;EXISTING CONDITIONS

[OPTIONS]
FLOW_UNITS           CFS
INFILTRATION         HORTON
FLOW_ROUTING         DYNWAVE
LINK_OFFSETS         DEPTH
MIN_SLOPE            0.0
ALLOW_PONDING        NO
SKIP_STEADY_STATE    NO
INERTIAL_DAMPING     PARTIAL
NORMAL_FLOW_LIMITED  BOTH

[JUNCTIONS]
;;Name           Elev       MaxDepth   InitDepth  SurDepth   Aponded
;;-------------- ---------- ---------- ---------- ---------- ----------
5050             0          0          0          0          0
5060             0          0          0          0          0
5070             0          0          0          0          0
5080             0          0          0          0          0
5090             0          0          0          0          0
5100             0          0          0          0          0
5110             0          0          0          0          0
5120             0          0          0          0          0
5130             0          0          0          0          0
5140             0          0          0          0          0
5150             0          0          0          0          0
5160             0          0          0          0          0
5170             0          0          0          0          0
5180             0          0          0          0          0
5190             0          0          0          0          0
5200             0          0          0          0          0
5202             0          0          0          0          0
5210             0          0          0          0          0
5212             0          0          0          0          0
5220             0          0          0          0          0
5222             0          0          0          0          0
5230             0          0          0          0          0
5240             0          0          0          0          0
5250             0          0          0          0          0
5260             0          0          0          0          0
5270             0          0          0          0          0
5280             0          0          0          0          0
5290             0          0          0          0          0
5292             0          0          0          0          0
5300             0          0          0          0          0
5310             0          0          0          0          0
5320             0          0          0          0          0
5330             0          0          0          0          0
5340             0          0          0          0          0
5350             0          0          0          0          0
5360             0          0          0          0          0
5370             0          0          0          0          0
5380             0          0          0          0          0
5390             0          0          0          0          0
5392             0          0          0          0          0
5400             0          0          0          0          0
5402             0          0          0          0          0
5410             0          0          0          0          0
5420             0          0          0          0          0
5422             0          0          0          0          0
5430             0          0          0          0          0
5440             0          0          0          0          0
5450             0          0          0          0          0
5460             0          0          0          0          0
5462             0          0          0          0          0
5470             0          0          0          0          0
5480             0          0          0          0          0
5482             0          0          0          0          0
5490             0          0          0          0          0
5492             0          0          0          0          0
5500             0          0          0          0          0
5510             0          0          0          0          0
5540             0          0          0          0          0
5550             0          0          0          0          0
5560             0          0          0          0          0
5570             0          0          0          0          0
5580             0          0          0          0          0

[CONDUITS]
;;Name           From             To               Length     Roughness  InOffset   OutOffset  InitFlow   MaxFlow
;;-------------- ---------------- ---------------- ---------- ---------- ---------- ---------- ---------- ----------
5055             5050             5410             470.00     0.0350     10.01      0          0          0
5075             5070             5080             375.00     0.0350     2.51       0          0          0
5085             5080             5090             690.00     0.0350     11.04      0          0          0
5095             5090             5100             820.00     0.0350     4.92       0          0          0
5105             5100             5110             705.00     0.0130     9.87       0          0          0
5115             5110             5120             440.00     0.0350     2.51       0          0          0
5125             5120             5170             580.00     0.0130     2.49       0          0          0
5135             5130             5170             1470.00    0.0130     24.99      0          0          0
5145             5140             5160             320.00     0.0130     13.09      0          0          0
5155             5150             5160             380.00     0.0130     3.00       0          0          0
5165             5160             5170             285.00     0.0130     1.51       0          0          0
5175             5170             5180             750.00     0.0130     3.98       0          0          0
5185             5180             5190             220.00     0.0350     2.42       0          0          0
5195             5190             5200             200.00     0.0130     5.00       0          0          0
5205             5200             5202             555.00     0.0130     14.98      0          0          0
5206             5202             5300             51.00      0.0130     10.20      0          0          0
5214             5212             5220             44.00      0.0130     0.26       0          0          0
5215             5210             5220             312.00     0.0130     6.86       0          0          0
5224             5222             5220             87.00      0.0130     0.52       0          0          0
5225             5220             5240             107.00     0.0130     0.43       0          0          0
5235             5230             5240             200.00     0.0130     3.80       0          0          0
5245             5240             5250             262.00     0.0130     0.79       0          0          0
5255             5250             5270             247.00     0.0130     2.47       0          0          0
5265             5260             5270             670.00     0.0130     5.03       0          0          0
5275             5270             5280             465.00     0.0130     4.65       0          0          0
5285             5280             5290             176.00     0.0130     14.61      0          0          0
5295             5290             5292             216.00     0.0130     0.86       0          0          0
5296             5292             5202             7.00       0.0130     0.11       0          0          0
5305             5300             5380             400.00     0.0350     2.52       0          0          0
5315             5310             5320             611.00     0.0130     14.05      0          0          0
5325             5320             5330             661.00     0.0130     17.19      0          0          0
5335             5330             5340             658.00     0.0130     15.13      0          0          0
5345             5340             5350             340.00     0.0130     13.60      0          0          0
5355             5350             5370             348.00     0.0130     6.61       0          0          0
5365             5360             5370             282.00     0.0130     22.84      0          0          0
5375             5370             5390             727.00     0.0130     15.99      0          0          0
5385             5380             5400             350.00     0.0350     15.05      0          0          0
5395             5390             5392             149.00     0.0130     1.79       0          0          0
5396             5392             5400             55.00      0.0130     6.33       0          0          0
5404             5402             5410             427.00     0.0130     40.14      0          0          0
5405             5400             5470             800.00     0.0350     40.00      0          0          0
5415             5410             5420             350.00     0.0350     7.00       0          0          0
5425             5420             5422             1800.00    0.0350     30.60      0          0          0
5426             5422             5430             250.00     0.0130     10.00      0          0          0
5435             5430             5440             1600.00    0.0350     30.40      0          0          0
5445             5440             5550             800.00     0.0350     20.00      0          0          0
5455             5450             5460             345.00     0.0130     12.07      0          0          0
5465             5460             5462             158.00     0.0130     9.16       0          0          0
5466             5462             5470             75.00      0.0130     10.50      0          0          0
5475             5470             5490             700.00     0.0350     35.00      0          0          0
5485             5480             5482             411.00     0.0130     19.11      0          0          0
5486             5482             5490             53.00      0.0130     11.45      0          0          0
5495             5492             5540             70.00      0.0130     1.82       0          0          0
5494             5490             5492             670.00     0.0350     18.09      0          0          0
5505             5500             5510             320.00     0.0130     8.00       0          0          0
5515             5510             5560             351.00     0.0130     3.51       0          0          0
5545             5540             5550             350.00     0.0350     7.00       0          0          0
5555             5550             5560             380.00     0.0350     12.16      0          0          0
5565             5560             5570             720.00     0.0350     6.98       0          0          0
5575             5570             5580             580.00     0.0350     4.99       0          0          0

[XSECTIONS]
;;Link           Shape        Geom1      Geom2      Geom3      Geom4      Barrels
;;-------------- ------------ ---------- ---------- ---------- ---------- ----------
5055             TRAPEZOIDAL  2.00       10.00      0          0          1
5075             TRAPEZOIDAL  1.50       2.00       0          0          1
5085             TRAPEZOIDAL  1.50       2.00       0          0          1
5095             TRAPEZOIDAL  1.50       2.00       0          0          1
5105             CIRCULAR     3.00       0          0          0          1
5115             TRAPEZOIDAL  1.50       2.00       0          0          1
5125             CIRCULAR     2.00       0          0          0          1
5135             CIRCULAR     1.00       0          0          0          1
5145             CIRCULAR     1.00       0          0          0          1
5155             CIRCULAR     1.00       0          0          0          1
5165             CIRCULAR     1.00       0          0          0          1
5175             CIRCULAR     2.00       0          0          0          1
5185             TRAPEZOIDAL  1.50       2.00       0          0          1
5195             CIRCULAR     2.00       0          0          0          1
5205             CIRCULAR     2.00       0          0          0          1
5206             CIRCULAR     2.00       0          0          0          1
5214             CIRCULAR     4.50       0          0          0          1
5215             CIRCULAR     1.25       0          0          0          1
5224             CIRCULAR     4.50       0          0          0          1
5225             CIRCULAR     1.50       0          0          0          1
5235             CIRCULAR     1.50       0          0          0          1
5245             CIRCULAR     1.50       0          0          0          1
5255             CIRCULAR     1.50       0          0          0          1
5265             CIRCULAR     1.00       0          0          0          1
5275             CIRCULAR     1.50       0          0          0          1
5285             CIRCULAR     1.25       0          0          0          1
5295             CIRCULAR     5.00       0          0          0          1
5296             CIRCULAR     1.00       0          0          0          1
5305             RECT_CLOSED  3.00       6.00       0          0          1
5315             CIRCULAR     1.00       0          0          0          1
5325             CIRCULAR     1.25       0          0          0          1
5335             CIRCULAR     1.00       0          0          0          1
5345             CIRCULAR     1.25       0          0          0          1
5355             CIRCULAR     1.50       0          0          0          1
5365             CIRCULAR     1.50       0          0          0          1
5375             CIRCULAR     2.00       0          0          0          1
5385             RECT_CLOSED  3.00       6.00       0          0          1
5395             CIRCULAR     9.00       0          0          0          1
5396             CIRCULAR     2.00       0          0          0          1
5404             CIRCULAR     0.67       0          0          0          1
5405             RECT_CLOSED  3.00       6.00       0          0          1
5415             TRAPEZOIDAL  2.00       10.00      0          0          1
5425             TRAPEZOIDAL  2.00       10.00      0          0          1
5426             RECT_CLOSED  5.00       6.00       0          0          1
5435             TRAPEZOIDAL  3.00       10.00      0          0          1
5445             TRAPEZOIDAL  3.00       10.00      0          0          1
5455             CIRCULAR     1.00       0          0          0          1
5465             CIRCULAR     1.50       0          0          0          1
5466             CIRCULAR     1.50       0          0          0          1
5475             RECT_CLOSED  3.00       6.00       0          0          1
5485             CIRCULAR     1.00       0          0          0          1
5486             CIRCULAR     1.00       0          0          0          1
5495             CIRCULAR     3.00       0          0          0          1
5494             RECT_CLOSED  3.00       6.00       0          0          1
5505             CIRCULAR     1.00       0          0          0          1
5515             CIRCULAR     1.50       0          0          0          1
5545             RECT_CLOSED  3.00       6.00       0          0          1
5555             TRAPEZOIDAL  3.00       10.00      0          0          1
5565             TRAPEZOIDAL  3.00       10.00      0          0          1
5575             TRAPEZOIDAL  3.00       10.00      0          0          1

[LOSSES]
;;Link           Inlet      Outlet     Average    Flap Gate
;;-------------- ---------- ---------- ---------- ----------
5055             0          0          0          NO
5075             0          0          0          NO
5085             0          0          0          NO
5095             0          0          0          NO
5105             0          0          0          NO
5115             0          0          0          NO
5125             0          0          0          NO
5135             0          0          0          NO
5145             0          0          0          NO
5155             0          0          0          NO
5165             0          0          0          NO
5175             0          0          0          NO
5185             0          0          0          NO
5195             0          0          0          NO
5205             0          0          0          NO
5206             0          0          0          NO
5214             0          0          0          NO
5215             0          0          0          NO
5224             0          0          0          NO
5225             0          0          0          NO
5235             0          0          0          NO
5245             0          0          0          NO
5255             0          0          0          NO
5265             0          0          0          NO
5275             0          0          0          NO
5285             0          0          0          NO
5295             0          0          0          NO
5296             0          0          0          NO
5305             0          0          0          NO
5315             0          0          0          NO
5325             0          0          0          NO
5335             0          0          0          NO
5345             0          0          0          NO
5355             0          0          0          NO
5365             0          0          0          NO
5375             0          0          0          NO
5385             0          0          0          NO
5395             0          0          0          NO
5396             0          0          0          NO
5404             0          0          0          NO
5405             0          0          0          NO
5415             0          0          0          NO
5425             0          0          0          NO
5426             0          0          0          NO
5435             0          0          0          NO
5445             0          0          0          NO
5455             0          0          0          NO
5465             0          0          0          NO
5466             0          0          0          NO
5475             0          0          0          NO
5485             0          0          0          NO
5486             0          0          0          NO
5495             0          0          0          NO
5494             0          0          0          NO
5505             0          0          0          NO
5515             0          0          0          NO
5545             0          0          0          NO
5555             0          0          0          NO
5565             0          0          0          NO
5575             0          0          0          NO

[COORDINATES]
;;Node           X-Coord            Y-Coord
;;-------------- ------------------ ------------------
5050             336.80             -8.94             
5060             353.57             -6.40             
5070             720.01             -105.90           
5080             701.22             -112.74           
5090             682.42             -119.58           
5100             663.63             -126.42           
5110             644.83             -133.27           
5120             626.04             -140.11           
5130             626.94             -150.42           
5140             641.36             -166.64           
5150             632.57             -177.12           
5160             622.57             -159.80           
5170             607.25             -146.95           
5180             587.55             -143.47           
5190             567.85             -140.00           
5200             548.16             -136.53           
5202             528.46             -133.05           
5210             653.92             -221.28           
5212             653.02             -210.97           
5220             634.22             -217.81           
5222             649.54             -230.67           
5230             627.38             -229.66           
5240             614.53             -214.34           
5250             597.21             -204.34           
5260             586.73             -213.13           
5270             579.89             -194.34           
5280             567.03             -179.02           
5290             554.17             -163.70           
5292             541.32             -148.38           
5300             511.14             -123.05           
5310             561.30             -236.04           
5320             548.44             -220.72           
5330             535.59             -205.40           
5340             522.73             -190.08           
5350             509.88             -174.76           
5360             497.02             -179.44           
5370             497.02             -159.44           
5380             493.82             -113.05           
5390             490.18             -140.64           
5392             483.34             -121.85           
5400             476.50             -103.05           
5402             356.80             11.06             
5410             356.80             -8.94             
5420             376.80             -8.94             
5422             396.80             -8.94             
5430             416.80             -8.94             
5440             436.80             -8.94             
5450             463.64             -147.73           
5460             463.64             -127.73           
5462             463.64             -107.73           
5470             463.64             -87.73            
5480             443.12             -106.53           
5482             449.96             -87.73            
5490             456.80             -68.94            
5492             456.80             -48.94            
5500             476.80             31.06             
5510             476.80             11.06             
5540             456.80             -28.94            
5550             456.80             -8.94             
5560             476.80             -8.94             
5570             496.80             -8.94             
5580             516.80             -8.94             

[MAP]
DIMENSIONS 336.80 -236.04 720.01 31.06
Units      None

[REPORT]
INPUT            YES
SUBCATCHMENTS    ALL
NODES            ALL
LINKS            ALL



