;; SWMM5 .inp converted from XPSWMM .xp file
;; Generated by XPSWMM Card Reader
;; Source format: XP_CARD | Original title: City of Camden and Gloucester City Sewer System Model

[TITLE]
;;Project Title/Notes
City of Camden and Gloucester City Sewer System Model

[OPTIONS]
FLOW_UNITS           CFS
INFILTRATION         HORTON
FLOW_ROUTING         DYNWAVE
LINK_OFFSETS         DEPTH
MIN_SLOPE            0.0
ALLOW_PONDING        NO
SKIP_STEADY_STATE    NO
ROUTING_STEP         00:00:30
VARIABLE_STEP        0.75
INERTIAL_DAMPING     PARTIAL
NORMAL_FLOW_LIMITED  BOTH
MAX_TRIALS           50
HEAD_TOLERANCE       0.0033

[JUNCTIONS]
;;Name           Elev       MaxDepth   InitDepth  SurDepth   Aponded
;;-------------- ---------- ---------- ---------- ---------- ----------
0                3.69       0          0          0          0
0                12.90      0          0          0          0
0                10.25      0          0          0          0
0                10.75      0          0          0          0
0                10.75      0          0          0          0
0                6.50       0          0          0          0
0                3.69       0          0          0          0
0                6.39       0          0          0          0
0                6.55       0          0          0          0
0                6.55       0          0          0          0
0                7.95       0          0          0          0
0                12.93      0          0          0          0
0                7.58       0          0          0          0
0                8.58       0          0          0          0
0                6.94       0          0          0          0
0                9.00       0          0          0          0
0                5.19       0          0          0          0
0                5.51       0          0          0          0
0                6.83       0          0          0          0
0                6.23       0          0          0          0
0                6.72       0          0          0          0
0                5.67       0          0          0          0
0                10.04      0          0          0          0
0                6.32       0          0          0          0
0                3.67       0          0          0          0
0                8.61       0          0          0          0
0                4.96       0          0          0          0
0                4.90       0          0          0          0
0                9.01       0          0          0          0
0                5.50       0          0          0          0
0                7.13       0          0          0          0
0                6.26       0          0          0          0
0                6.54       0          0          0          0
0                11.13      0          0          0          0
0                3.02       0          0          0          0
0                9.65       0          0          0          0
0                8.82       0          0          0          0
0                27.30      0          0          0          0
0                18.90      0          0          0          0
0                9.35       0          0          0          0
0                10.00      0          0          0          0
0                7.45       0          0          0          0
0                6.15       0          0          0          0
0                5.96       0          0          0          0
0                18.00      0          0          0          0
0                18.36      0          0          0          0
0                2.41       0          0          0          0
0                17.66      0          0          0          0
0                5.61       0          0          0          0
0                7.53       0          0          0          0
0                2.93       0          0          0          0
0                12.74      0          0          0          0
0                10.00      0          0          0          0
0                19.44      0          0          0          0
0                7.39       0          0          0          0
0                6.18       0          0          0          0
0                25.00      0          0          0          0
0                11.00      0          0          0          0
0                6.00       0          0          0          0
0                7.00       0          0          0          0
0                17.00      0          0          0          0
0                25.00      0          0          0          0
0                200.00     0          0          0          0
0                200.00     0          0          0          0
0                15.60      0          0          0          0
0                15.00      0          0          0          0
0                10.00      0          0          0          0
0                200.00     0          0          0          0
0                200.00     0          0          0          0
0                9.00       0          0          0          0
0                6.00       0          0          0          0
0                5.26       0          0          0          0
0                15.69      0          0          0          0
0                9.50       0          0          0          0
0                200.00     0          0          0          0
0                200.00     0          0          0          0
0                5.00       0          0          0          0
0                6.00       0          0          0          0
0                6.88       0          0          0          0
0                13.00      0          0          0          0
0                10.00      0          0          0          0
0                5.22       0          0          0          0
0                5.15       0          0          0          0
0                6.67       0          0          0          0
0                7.49       0          0          0          0
0                10.38      0          0          0          0
0                10.95      0          0          0          0
0                7.02       0          0          0          0
0                10.00      0          0          0          0
0                15.70      0          0          0          0
0                21.15      0          0          0          0
0                17.02      0          0          0          0
0                15.69      0          0          0          0
0                8.04       0          0          0          0
0                9.01       0          0          0          0
0                12.00      0          0          0          0
0                20.33      0          0          0          0
0                8.89       0          0          0          0
0                6.32       0          0          0          0
0                5.00       0          0          0          0
0                10.00      0          0          0          0
0                10.00      0          0          0          0
0                15.00      0          0          0          0
0                26.00      0          0          0          0
0                24.00      0          0          0          0
0                11.87      0          0          0          0
0                12.00      0          0          0          0
0                13.50      0          0          0          0
0                11.04      0          0          0          0
0                10.58      0          0          0          0
0                6.78       0          0          0          0
0                4.66       0          0          0          0
0                11.44      0          0          0          0
0                11.44      0          0          0          0
0                7.11       0          0          0          0
0                6.54       0          0          0          0
0                6.54       0          0          0          0
0                6.54       0          0          0          0
0                26.90      0          0          0          0
0                23.95      0          0          0          0
0                19.54      0          0          0          0
0                19.54      0          0          0          0
0                6.24       0          0          0          0
0                12.35      0          0          0          0
0                10.00      0          0          0          0
0                6.24       0          0          0          0
0                8.33       0          0          0          0
0                8.33       0          0          0          0
0                18.75      0          0          0          0
0                4.55       0          0          0          0
0                206.00     0          0          0          0
0                219.95     0          0          0          0
0                107.64     0          0          0          0
0                107.64     0          0          0          0
0                200.00     0          0          0          0
0                223.00     0          0          0          0
0                7.10       0          0          0          0
0                13.85      0          0          0          0
0                13.50      0          0          0          0
0                8.40       0          0          0          0
0                10.00      0          0          0          0
0                5.80       0          0          0          0
0                10.00      0          0          0          0
0                6.43       0          0          0          0
0                10.80      0          0          0          0
0                10.50      0          0          0          0
0                0          0          0          0          0
0                11.00      0          0          0          0
0                6.55       0          0          0          0
0                0          0          0          0          0
0                7.11       0          0          0          0
0                12.43      0          0          0          0

[STORAGE]
;;Name           Elev       MaxDepth   InitDepth  Shape      Curve/Params
;;-------------- ---------- ---------- ---------- ---------- ----------
0                203.69     -200.00    0          FUNCTIONAL 110000.00 0          0
0                9.00       0          0          FUNCTIONAL 500.00 0          0
0                6.91       0          0          FUNCTIONAL 76.50 0          0
0                6.91       0          0          FUNCTIONAL 126.00 0          0
0                6.88       0          0          FUNCTIONAL 6112.00 0          0
0                6.91       0          0          FUNCTIONAL 126.00 0          0
0                6.91       0          0          FUNCTIONAL 182.30 0          0
0                7.46       0          0          FUNCTIONAL 48.00 0          0
0                7.46       0          0          FUNCTIONAL 37.50 0          0
0                7.46       0          0          FUNCTIONAL 35.00 0          0
0                7.46       0          0          FUNCTIONAL 35.00 0          0
0                8.09       0          0          FUNCTIONAL 6132.00 0          0
0                15.19      0          0          FUNCTIONAL 9513.00 0          0
0                7.10       0          0          FUNCTIONAL 14320.00 0          0
0                9.55       0          0          FUNCTIONAL 10870.00 0          0
0                8.58       0          0          FUNCTIONAL 2633.00 0          0
0                7.98       0          0          FUNCTIONAL 8389.00 0          0
0                9.21       0          0          FUNCTIONAL 30.00 0          0
0                9.21       0          0          FUNCTIONAL 79.60 0          0
0                9.21       0          0          FUNCTIONAL 45.00 0          0
0                9.21       0          0          FUNCTIONAL 45.00 0          0
0                8.57       0          0          FUNCTIONAL 2275.00 0          0
0                4.63       0          0          FUNCTIONAL 2938.00 0          0
0                5.19       0          0          FUNCTIONAL 35.50 0          0
0                5.19       0          0          FUNCTIONAL 37.50 0          0
0                5.19       0          0          FUNCTIONAL 37.50 0          0
0                5.19       0          0          FUNCTIONAL 26.00 0          0
0                6.83       0          0          FUNCTIONAL 32.50 0          0
0                6.83       0          0          FUNCTIONAL 32.50 0          0
0                5.55       0          0          FUNCTIONAL 3468.00 0          0
0                6.83       0          0          FUNCTIONAL 21.20 0          0
0                6.72       0          0          FUNCTIONAL 33.00 0          0
0                6.72       0          0          FUNCTIONAL 37.50 0          0
0                6.72       0          0          FUNCTIONAL 37.50 0          0
0                5.37       0          0          FUNCTIONAL 8312.00 0          0
0                6.72       0          0          FUNCTIONAL 22.00 0          0
0                9.80       0          0          FUNCTIONAL 10667.00 0          0
0                8.36       0          0          FUNCTIONAL 4108.00 0          0
0                10.40      -0.36      0          FUNCTIONAL 24.00 0          0
0                10.04      0          0          FUNCTIONAL 74.40 0          0
0                10.04      0          0          FUNCTIONAL 61.25 0          0
0                6.32       0          0          FUNCTIONAL 5722.00 0          0
0                10.04      0          0          FUNCTIONAL 27.00 0          0
0                8.76       -0.15      0          FUNCTIONAL 24.00 0          0
0                8.61       0          0          FUNCTIONAL 37.50 0          0
0                8.61       0          0          FUNCTIONAL 37.50 0          0
0                8.61       0          0          FUNCTIONAL 25.00 0          0
0                4.96       0          0          FUNCTIONAL 52.50 0          0
0                4.96       0          0          FUNCTIONAL 52.50 0          0
0                4.96       0          0          FUNCTIONAL 24.00 0          0
0                9.01       -17.22     0          FUNCTIONAL 336.00 0          0
0                4.96       0          0          FUNCTIONAL 48.10 0          0
0                7.55       0          0          FUNCTIONAL 42.00 0          0
0                7.55       0          0          FUNCTIONAL 70.00 0          0
0                7.55       0          0          FUNCTIONAL 70.00 0          0
0                5.53       0          0          FUNCTIONAL 6161.00 0          0
0                7.55       0          0          FUNCTIONAL 36.00 0          0
0                6.54       0          0          FUNCTIONAL 35.80 0          0
0                6.54       0          0          FUNCTIONAL 24.00 0          0
0                6.54       0          0          FUNCTIONAL 24.00 0          0
0                5.88       0          0          FUNCTIONAL 2400.00 0          0
0                6.54       0          0          FUNCTIONAL 24.00 0          0
0                5.60       0          0          FUNCTIONAL 33.00 0          0
0                5.60       0          0          FUNCTIONAL 70.00 0          0
0                5.60       0          0          FUNCTIONAL 70.00 0          0
0                11.62      0          0          FUNCTIONAL 3453.00 0          0
0                5.60       0          0          FUNCTIONAL 32.00 0          0
0                8.82       0          0          FUNCTIONAL 24.00 0          0
0                8.82       0          0          FUNCTIONAL 32.50 0          0
0                8.82       0          0          FUNCTIONAL 32.50 0          0
0                8.82       0          0          FUNCTIONAL 18.00 0          0
0                12.76      0          0          FUNCTIONAL 10504.00 0          0
0                9.42       0          0          FUNCTIONAL 3729.00 0          0
0                8.70       0          0          FUNCTIONAL 4773.00 0          0
0                8.47       0          0          FUNCTIONAL 9167.00 0          0
0                4.71       0          0          FUNCTIONAL 7857.00 0          0
0                10.00      0          0          FUNCTIONAL 6557.00 0          0
0                5.55       0          0          FUNCTIONAL 11819.00 0          0
0                5.30       0          0          FUNCTIONAL 5201.00 0          0
0                21.55      0          0          FUNCTIONAL 10765.00 0          0
0                33.91      0          0          FUNCTIONAL 17206.00 0          0
0                10.31      0          0          FUNCTIONAL 10658.00 0          0
0                16.50      0          0          FUNCTIONAL 5163.00 0          0
0                18.36      0          0          FUNCTIONAL 30.00 0          0
0                18.36      0          0          FUNCTIONAL 39.00 0          0
0                18.36      0          0          FUNCTIONAL 30.00 0          0
0                17.63      0          0          FUNCTIONAL 2520.00 0          0
0                15.61      0          0          FUNCTIONAL 27.50 0          0
0                15.61      0          0          FUNCTIONAL 45.00 0          0
0                15.61      0          0          FUNCTIONAL 27.50 0          0
0                7.53       0          0          FUNCTIONAL 30.00 0          0
0                7.53       0          0          FUNCTIONAL 45.00 0          0
0                7.53       0          0          FUNCTIONAL 45.00 0          0
0                7.53       0          0          FUNCTIONAL 30.00 0          0
0                6.03       0          0          FUNCTIONAL 3673.00 0          0
0                9.43       0          0          FUNCTIONAL 33.00 0          0
0                9.43       0          0          FUNCTIONAL 44.00 0          0
0                9.43       0          0          FUNCTIONAL 44.00 0          0
0                9.43       0          0          FUNCTIONAL 24.00 0          0
0                4.66       0          0          FUNCTIONAL 5124.00 0          0
0                13.66      0          0          FUNCTIONAL 75.00 0          0
0                13.66      0          0          FUNCTIONAL 75.00 0          0
0                13.66      0          0          FUNCTIONAL 61.90 0          0
0                13.66      0          0          FUNCTIONAL 75.00 0          0
0                14.18      0          0          FUNCTIONAL 13970.00 0          0
0                11.09      0          0          FUNCTIONAL 58.50 0          0
0                11.09      0          0          FUNCTIONAL 58.50 0          0
0                11.09      0          0          FUNCTIONAL 40.50 0          0
0                10.82      0          0          FUNCTIONAL 11021.00 0          0
0                20.00      0          0          FUNCTIONAL 30.00 0          0
0                19.01      0          0          FUNCTIONAL 42.00 0          0
0                19.01      0          0          FUNCTIONAL 42.00 0          0
0                19.01      0          0          FUNCTIONAL 42.00 0          0
0                17.54      0          0          FUNCTIONAL 8855.00 0          0
0                7.85       0          0          FUNCTIONAL 70.00 0          0
0                7.85       0          0          FUNCTIONAL 70.00 0          0
0                9.11       -9.96      0          FUNCTIONAL 200.00 0          0
0                7.85       0          0          FUNCTIONAL 65.00 0          0
0                14.55      0          0          FUNCTIONAL 13112.00 0          0
0                22.62      -24.82     0          FUNCTIONAL 372.00 0          0
0                8.40       -7.91      0          FUNCTIONAL 161.00 0          0
0                8.38       0          0          FUNCTIONAL 6678.00 0          0
0                8.90       0          0          FUNCTIONAL 32.50 0          0
0                8.90       -0.10      0          FUNCTIONAL 35.75 0          0
0                8.90       0          0          FUNCTIONAL 32.50 0          0
0                11.09      -1.00      0          FUNCTIONAL 55.00 0          0
0                6.04       0          0          FUNCTIONAL 31.50 0          0
0                6.04       0          0          FUNCTIONAL 31.50 0          0
0                6.04       0          0          FUNCTIONAL 20.00 0          0
0                6.54       0          0          FUNCTIONAL 150.00 0          0
0                6.04       0          0          FUNCTIONAL 20.00 0          0
0                6.88       0          0          FUNCTIONAL 100.00 0          0
0                6.88       0          0          FUNCTIONAL 64.90 0          0
0                10.50      0          0          FUNCTIONAL 144.00 0          0
0                10.50      0          0          FUNCTIONAL 120.00 0          0
0                12.43      -1.93      0          FUNCTIONAL 325.00 0          0
0                10.50      0          0          FUNCTIONAL 105.00 0          0
0                13.76      -0.09      0          FUNCTIONAL 50937.00 0          0
0                5.22       0          0          FUNCTIONAL 16.00 0          0
0                5.22       0          0          FUNCTIONAL 28.00 0          0
0                5.09       -0.09      0          FUNCTIONAL 28.00 0          0
0                4.55       0          0          FUNCTIONAL 3838.00 0          0
0                5.15       0          0          FUNCTIONAL 36.00 0          0
0                5.15       0          0          FUNCTIONAL 42.00 0          0
0                5.15       0          0          FUNCTIONAL 28.00 0          0
0                7.70       0          0          FUNCTIONAL 35480.00 0          0
0                6.67       0          0          FUNCTIONAL 20.00 0          0
0                6.67       0          0          FUNCTIONAL 35.00 0          0
0                6.67       0          0          FUNCTIONAL 28.00 0          0
0                9.61       0          0          FUNCTIONAL 4160.00 0          0
0                7.49       0          0          FUNCTIONAL 27.50 0          0
0                7.49       0          0          FUNCTIONAL 35.00 0          0
0                7.49       0          0          FUNCTIONAL 28.00 0          0
0                10.00      0          0          FUNCTIONAL 5674.00 0          0
0                10.48      0          0          FUNCTIONAL 20.00 0          0
0                10.48      0          0          FUNCTIONAL 35.00 0          0
0                10.48      0          0          FUNCTIONAL 28.00 0          0
0                14.82      0          0          FUNCTIONAL 12569.00 0          0
0                10.95      0          0          FUNCTIONAL 16.00 0          0
0                10.95      0          0          FUNCTIONAL 28.00 0          0
0                10.95      0          0          FUNCTIONAL 28.00 0          0
0                13.68      0          0          FUNCTIONAL 5644.00 0          0
0                7.02       0          0          FUNCTIONAL 28.00 0          0
0                7.02       0          0          FUNCTIONAL 16.00 0          0
0                7.02       0          0          FUNCTIONAL 28.00 0          0
0                10.20      -7.70      0          FUNCTIONAL 35.00 0          0
0                12.50      -20.10     0          FUNCTIONAL 306.00 0          0
0                10.03      0          0          FUNCTIONAL 5445.00 0          0
0                10.00      0          0          FUNCTIONAL 8935.00 0          0
0                14.09      -0.05      0          FUNCTIONAL 9731.00 0          0
0                11.71      0          0          FUNCTIONAL 5694.00 0          0
0                7.03       0          0          FUNCTIONAL 2065.00 0          0
0                15.69      0          0          FUNCTIONAL 296.00 0          0
0                21.15      0          0          FUNCTIONAL 1960.00 0          0
0                17.02      0          0          FUNCTIONAL 568.00 0          0
0                30.60      0          0          FUNCTIONAL 6144.00 0          0
0                16.14      0          0          FUNCTIONAL 4794.00 0          0
0                26.90      0          0          FUNCTIONAL 9646.00 0          0
0                23.95      0          0          FUNCTIONAL 10941.00 0          0
0                12.95      0          0          FUNCTIONAL 4743.00 0          0
0                13.13      0          0          FUNCTIONAL 3228.00 0          0
0                9.52       0          0          FUNCTIONAL 2312.00 0          0
0                25.97      0          0          FUNCTIONAL 2302.00 0          0
0                14.40      0          0          FUNCTIONAL 3177.00 0          0
0                14.00      0          0          FUNCTIONAL 4118.00 0          0
0                5.50       0          0          FUNCTIONAL 17206.00 0          0
0                8.13       0          0          FUNCTIONAL 7210.00 0          0
0                6.88       0          0          FUNCTIONAL 3881.00 0          0
0                5.97       0          0          FUNCTIONAL 6651.00 0          0
0                15.00      0          0          FUNCTIONAL 10481.00 0          0
0                6.55       0          0          FUNCTIONAL 3517.00 0          0
0                12.93      0          0          FUNCTIONAL 3713.00 0          0
0                8.10       0          0          FUNCTIONAL 4141.00 0          0
0                10.28      0          0          FUNCTIONAL 3267.00 0          0
0                15.91      0          0          FUNCTIONAL 3458.00 0          0
0                10.00      0          0          FUNCTIONAL 1588.00 0          0
0                13.85      -3.85      0          FUNCTIONAL 136.00 0          0
0                6.00       0          0          FUNCTIONAL 2416.00 0          0
0                7.75       0          0          FUNCTIONAL 206.00 0          0
0                9.13       -12.55     0          FUNCTIONAL 179.00 0          0
0                10.50      0          0          FUNCTIONAL 6986.00 0          0
0                13.80      0          0          FUNCTIONAL 8194.00 0          0
0                10.07      0          0          FUNCTIONAL 5288.00 0          0
0                14.06      0          0          FUNCTIONAL 8114.00 0          0
0                9.89       -14.87     0          FUNCTIONAL 396.00 0          0
0                7.00       0          0          FUNCTIONAL 4000.00 0          0
0                112.85     -100.00    0          FUNCTIONAL 304.00 0          0
0                6.83       0          0          FUNCTIONAL 32.00 0          0
0                26.90      0          0          FUNCTIONAL 196.00 0          0
0                23.95      0          0          FUNCTIONAL 100.00 0          0
0                6.54       0          0          FUNCTIONAL 100.00 0          0
0                27.17      0          0          FUNCTIONAL 22000.00 0          0
0                8.09       0          0          FUNCTIONAL 6132.00 0          0
0                12.93      0          0          FUNCTIONAL 3713.00 0          0
0                15.19      0          0          FUNCTIONAL 9513.00 0          0

[CONDUITS]
;;Name           From             To               Length     Roughness  InOffset   OutOffset  InitFlow   MaxFlow
;;-------------- ---------------- ---------------- ---------- ---------- ---------- ---------- ---------- ----------
202              0                0                200.00     0.0140     -2.45      -2.45      0          0
208              0                0                140.00     0.0140     -11.75     -12.15     0          0
MAGMETER2        0                0                26.50      0.0140     -12.81     -11.75     0          0
MAGMETER1        0                0                26.50      0.0140     -12.81     -11.75     0          0
219              0                0                170.00     0.0140     -12.23     -12.80     0          0
223              0                0                292.00     0.0140     -8.82      -9.12      0          0
225              0                0                640.00     0.0130     -1.79      -2.75      0          0
C3RG             0                0                10.00      0.0160     -2.40      -2.41      0          0
240              0                0                273.00     0.0140     -8.52      -8.82      0          0
244              0                0                1757.00    0.0140     -6.45      -8.52      0          0
246              0                0                990.00     0.0140     -5.03      -6.45      0          0
250              0                0                120.00     0.0170     -0.87      -2.77      0          0
254              0                0                318.00     0.0140     -3.02      -3.05      0          0
1518TS2-C2       0                0                148.00     0.0170     -0.80      -0.87      0          0
261              0                0                849.00     0.0170     1.40       0.59       0          0
1270TS5-C2       0                0                305.00     0.0170     1.40       1.40       0          0
1299TS7-C2       0                0                671.00     0.0140     5.65       4.79       0          0