;; SWMM5 .inp converted from XPSWMM .xp file
;; Generated by XPSWMM Card Reader
;; Source format: XP_CARD | Original title: NBC SWMM MODELING PROJECT PHASE-1B TUNNEL MODEL

[TITLE]
;;Project Title/Notes
NBC SWMM MODELING PROJECT PHASE-1B TUNNEL MODEL

[OPTIONS]
FLOW_UNITS           CFS
INFILTRATION         HORTON
FLOW_ROUTING         DYNWAVE
LINK_OFFSETS         DEPTH
MIN_SLOPE            0.0
ALLOW_PONDING        NO
SKIP_STEADY_STATE    NO
ROUTING_STEP         00:00:10
VARIABLE_STEP        0.75
INERTIAL_DAMPING     NONE
NORMAL_FLOW_LIMITED  BOTH
MAX_TRIALS           50
HEAD_TOLERANCE       0.0033

[JUNCTIONS]
;;Name           Elev       MaxDepth   InitDepth  SurDepth   Aponded
;;-------------- ---------- ---------- ---------- ---------- ----------
T1000            131.65     0          0          0          0
T1005            131.65     0          0          0          0
T1010            131.65     0          0          0          0
T1015            127.65     0          0          0          0
T1020            127.65     0          0          0          0
T1025            127.65     0          0          0          0
T1030            119.65     0          0          0          0
T1035            119.65     0          0          0          0
T1040            119.65     0          0          0          0
T1045            119.65     0          0          0          0
T1050            119.65     0          0          0          0
T1055            119.65     0          0          0          0
T1060            119.65     0          0          0          0
T1065            119.65     0          0          0          0
T1070            119.65     0          0          0          0
T1075            119.65     0          0          0          0
T1080            119.65     0          0          0          0
T1085            119.65     0          0          0          0
T1090            119.65     0          0          0          0
T1100            119.65     0          0          0          0
T1105            119.65     0          0          0          0
T1110            119.65     0          0          0          0
T1115            119.65     0          0          0          0
T1120            119.65     0          0          0          0
T1125            119.65     0          0          0          0
T1130            119.65     0          0          0          0
T1135            119.65     0          0          0          0
T1140            119.65     0          0          0          0
T1145            119.65     0          0          0          0
T1150            119.65     0          0          0          0
T1155            127.65     0          0          0          0
T1160            127.65     0          0          0          0
T1165            127.65     0          0          0          0
T1170            127.65     0          0          0          0
T1175            127.65     0          0          0          0
T1180            137.65     0          0          0          0
T1185            157.65     0          0          0          0
T1190            157.65     0          0          0          0
T1195            157.65     0          0          0          0
T1200            157.65     0          0          0          0
T1205            157.65     0          0          0          0
T2005            90.00      0          0          0          0
T2010            125.00     0          0          0          0
T2015            125.00     0          0          0          0
T2025            125.00     0          0          0          0
T2030            125.00     0          0          0          0
T2035            125.00     0          0          0          0
T2040            125.00     0          0          0          0
T2045            95.00      0          0          0          0
T2050            95.00      0          0          0          0
T2055            100.00     0          0          0          0
T2060            120.00     0          0          0          0
T2065            120.00     0          0          0          0
T2070            120.00     0          0          0          0
T2075            120.00     0          0          0          0
T2080            120.00     0          0          0          0
T2085            120.00     0          0          0          0
T2090            120.00     0          0          0          0
T2095            120.00     0          0          0          0
T2100            120.00     0          0          0          0
T2105            120.00     0          0          0          0
T2110            120.00     0          0          0          0
T2115            110.00     0          0          0          0
T2125            100.00     0          0          0          0
T2130            90.00      0          0          0          0
T2135            107.65     0          0          0          0
T2140            132.25     0          0          0          0
T2145            142.35     0          0          0          0
T1095            119.65     0          0          0          0
a37000           133.57     0          0          0          0
a36000           136.82     0          0          0          0
a35000           121.67     0          0          0          0
a34000           128.95     0          0          0          0
a33000           120.03     0          0          0          0
a32000           118.90     0          0          0          0
a30000           115.00     0          0          0          0
a12000           107.68     0          0          0          0
d41              106.04     0          0          0          0
a13000           106.42     0          0          0          0
a15000           107.85     0          0          0          0
d43              105.45     0          0          0          0
d44              107.63     0          0          0          0
d45              107.18     0          0          0          0
d4605            108.33     0          0          0          0
d4661            131.01     0          0          0          0
d4604            106.25     0          0          0          0
d47              117.38     0          0          0          0
x9553            105.52     0          0          0          0
a18              160.08     0          0          0          0
a425             109.40     0          0          0          0
a523             106.39     0          0          0          0
a422             106.79     0          0          0          0
a319             108.40     0          0          0          0
a318             106.80     0          0          0          0
T2020            125.00     0          0          0          0
T995             120.00     0          0          0          0
FPWWTP           120.00     0          0          0          0
a16000           125.00     0          0          0          0

[CONDUITS]
;;Name           From             To               Length     Roughness  InOffset   OutOffset  InitFlow   MaxFlow
;;-------------- ---------------- ---------------- ---------- ---------- ---------- ---------- ---------- ----------
T000             T1005            T1000            950.00     0.0140     -115.92    -117.35    0          0
T015             T1020            T1015            950.00     0.0140     -111.65    -113.08    0          0
T010             T1015            T1010            950.00     0.0140     -113.08    -114.50    0          0
T005             T1010            T1005            950.00     0.0140     -114.50    -115.92    0          0
T055             T1060            T1055            500.00     0.0140     -104.15    -104.90    0          0
T050             T1055            T1050            500.00     0.0140     -104.90    -105.65    0          0
T045             T1050            T1045            500.00     0.0140     -105.65    -106.40    0          0
T040             T1045            T1040            500.00     0.0140     -106.40    -107.15    0          0
T035             T1040            T1035            300.00     0.0140     -107.15    -107.60    0          0
T030             T1035            T1030            600.00     0.0140     -107.60    -108.50    0          0
T025             T1030            T1025            900.00     0.0140     -108.50    -109.85    0          0
T020             T1025            T1020            1200.00    0.0140     -109.85    -111.65    0          0
T075             T1080            T1075            500.00     0.0140     -101.53    -102.28    0          0
T070             T1075            T1070            500.00     0.0140     -102.28    -103.03    0          0
T065             T1070            T1065            450.00     0.0140     -103.03    -103.70    0          0
T060             T1065            T1060            300.00     0.0140     -103.70    -104.15    0          0
T110             T1115            T1110            400.00     0.0140     -98.16     -98.76     0          0
T105             T1110            T1105            200.00     0.0140     -98.76     -99.06     0          0
T100             T1105            T1100            200.00     0.0140     -99.06     -99.36     0          0
T095             T1100            T1095            200.00     0.0140     -99.36     -99.66     0          0
T085             T1090            T1085            450.00     0.0140     -100.11    -100.78    0          0
T080             T1085            T1080            500.00     0.0140     -100.78    -101.53    0          0
T090             T1095            T1090            300.00     0.0140     -99.66     -100.11    0          0
T125             T1130            T1125            600.00     0.0140     -95.46     -96.36     0          0
T120             T1125            T1120            600.00     0.0140     -96.36     -97.26     0          0
T115             T1120            T1115            600.00     0.0140     -97.26     -98.16     0          0
T150             T1155            T1150            700.00     0.0140     -90.88     -91.93     0          0
T145             T1150            T1145            600.00     0.0140     -91.93     -92.83     0          0
T140             T1145            T1140            400.00     0.0140     -92.83     -93.44     0          0
T135             T1140            T1135            650.00     0.0140     -93.44     -94.41     0          0
T130             T1135            T1130            700.00     0.0140     -94.41     -95.46     0          0
T165             T1170            T1165            800.00     0.0140     -87.13     -88.33     0          0
T160             T1165            T1160            1000.00    0.0140     -88.33     -89.83     0          0
T155             T1160            T1155            700.00     0.0140     -89.83     -90.88     0          0
T185             T1190            T1185            600.00     0.0140     -82.93     -83.83     0          0
T180             T1185            T1180            600.00     0.0140     -83.83     -84.73     0          0
T175             T1180            T1175            800.00     0.0140     -84.73     -85.93     0          0
T170             T1175            T1170            800.00     0.0140     -85.93     -87.13     0          0
T200             T1205            T1200            950.00     0.0140     -79.40     -80.83     0          0
T195             T1200            T1195            800.00     0.0140     -80.83     -82.03     0          0
T190             T1195            T1190            600.00     0.0140     -82.03     -82.93     0          0
a037             a37000           T1190            300.00     0.0140     -82.48     -82.93     0          0
a036             a36000           T1180            125.00     0.0140     -84.54     -84.73     0          0
a035             a35000           T1160            125.00     0.0140     -89.64     -89.83     0          0
a034             a34000           T1150            250.00     0.0140     -91.55     -91.93     0          0
a033             a33000           T1145            125.00     0.0140     -92.64     -92.83     0          0
a032             a32000           T1140            400.00     0.0140     -92.83     -93.44     0          0
a030             a30000           T1130            250.00     0.0140     -95.08     -95.46     0          0
a012             a12000           T1110            125.00     0.0140     -98.57     -98.76     0          0
a013             a13000           T1100            125.00     0.0140     -99.17     -99.36     0          0
a015             a15000           T1090            250.00     0.0140     -100.06    -100.11    0          0
d011             d41              T1105            125.00     0.0140     -98.87     -99.06     0          0
d0910            d43              T1080            125.00     0.0140     -101.33    -101.53    0          0
d007             d44              T1070            125.00     0.0140     -102.84    -103.03    0          0
d006             d45              T1065            125.00     0.0140     -103.51    -103.70    0          0
d005             d4605            T1045            250.00     0.0140     -106.03    -106.40    0          0
d061             d4661            T1040            125.00     0.0140     -106.96    -107.15    0          0
d004             d4604            T1035            125.00     0.0140     -107.41    -107.60    0          0
d062             d47              T1020            125.00     0.0140     -111.46    -111.65    0          0
x067             x9553            T1000            250.00     0.0140     -116.97    -117.35    0          0
T340             T2145            T2140            1000.00    0.0140     -74.45     -75.95     0          0
T335             T2140            T2135            1000.00    0.0140     -75.95     -77.45     0          0
T330             T2135            T2130            1000.00    0.0140     -77.45     -78.95     0          0
T325             T2130            T2125            1000.00    0.0140     -78.95     -80.45     0          0
T315             T2125            T2115            1000.00    0.0140     -80.45     -81.95     0          0
a027             a18              T2115            400.00     0.0140     -81.35     -81.95     0          0
T310             T2115            T2110            1000.00    0.0140     -81.95     -83.45     0          0
T305             T2110            T2105            900.00     0.0140     -83.45     -84.80     0          0
T300             T2105            T2100            700.00     0.0140     -84.80     -85.85     0          0
T295             T2100            T2095            400.00     0.0140     -85.85     -86.45     0          0
T290             T2095            T2090            150.00     0.0140     -86.45     -86.67     0          0
T285             T2090            T2085            300.00     0.0140     -86.67     -87.13     0          0
T280             T2085            T2080            400.00     0.0140     -87.13     -87.72     0          0
a025             a425             T2090            125.00     0.0140     -86.49     -86.67     0          0
T275             T2080            T2075            500.00     0.0140     -87.72     -88.47     0          0
T270             T2075            T2070            600.00     0.0140     -88.47     -89.38     0          0
T265             T2070            T2065            600.00     0.0140     -89.38     -90.28     0          0
T260             T2065            T2060            600.00     0.0140     -90.28     -91.17     0          0
T023             a523             T2060            125.00     0.0140     -90.99     -91.17     0          0
T255             T2060            T2055            900.00     0.0140     -91.17     -92.53     0          0
T250             T2055            T2050            1000.00    0.0140     -92.53     -94.03     0          0
T245             T2050            T2045            1000.00    0.0140     -94.03     -95.53     0          0
T240             T2045            T2040            900.00     0.0140     -95.53     -96.88     0          0
a022             a422             T2040            125.00     0.0140     -96.69     -96.88     0          0
T235             T2040            T2035            800.00     0.0140     -96.88     -98.08     0          0
T230             T2035            T2030            800.00     0.0140     -98.08     -99.28     0          0
T225             T2030            T2025            800.00     0.0140     -99.28     -100.47    0          0
T220             T2025            T2020            450.00     0.0140     -100.47    -101.15    0          0
T210             T2015            T2010            450.00     0.0140     -101.83    -102.50    0          0
T205             T2010            T2005            550.00     0.0140     -102.50    -103.33    0          0
T201             T2005            T1060            550.00     0.0140     -103.33    -104.15    0          0
T019             a319             T2025            250.00     0.0140     -100.10    -100.47    0          0
T018             a318             T2015            500.00     0.0140     -101.08    -101.83    0          0
T215             T2020            T2015            450.00     0.0140     -101.15    -101.83    0          0
T95              T995             FPWWTP           2000.00    0.0140     105.52     102.52     0          0
a016             a16000           T2010            125.00     0.0140     -102.31    -102.50    0          0

[PUMPS]
;;Name           From             To               PumpCurve  Status   Startup    Shutoff
;;-------------- ---------------- ---------------- ---------- -------- ---------- ----------
ESPS             T1000            T995             *          ON       0          0         

[XSECTIONS]
;;Link           Shape        Geom1      Geom2      Geom3      Geom4      Barrels
;;-------------- ------------ ---------- ---------- ---------- ---------- ----------
T000             CIRCULAR     26.40      0          0          0          1
T015             CIRCULAR     26.40      0          0          0          1
T010             CIRCULAR     26.40      0          0          0          1
T005             CIRCULAR     26.40      0          0          0          1
T055             CIRCULAR     26.40      0          0          0          1
T050             CIRCULAR     26.40      0          0          0          1
T045             CIRCULAR     26.40      0          0          0          1
T040             CIRCULAR     26.40      0          0          0          1
T035             CIRCULAR     26.40      0          0          0          1
T030             CIRCULAR     26.40      0          0          0          1
T025             CIRCULAR     26.40      0          0          0          1
T020             CIRCULAR     26.40      0          0          0          1
T075             CIRCULAR     26.40      0          0          0          1
T070             CIRCULAR     26.40      0          0          0          1
T065             CIRCULAR     26.40      0          0          0          1
T060             CIRCULAR     26.40      0          0          0          1
T110             CIRCULAR     26.40      0          0          0          1
T105             CIRCULAR     26.40      0          0          0          1
T100             CIRCULAR     26.40      0          0          0          1
T095             CIRCULAR     26.40      0          0          0          1
T085             CIRCULAR     26.40      0          0          0          1
T080             CIRCULAR     26.40      0          0          0          1
T090             CIRCULAR     26.40      0          0          0          1
T125             CIRCULAR     26.40      0          0          0          1
T120             CIRCULAR     26.40      0          0          0          1
T115             CIRCULAR     26.40      0          0          0          1
T150             CIRCULAR     26.40      0          0          0          1
T145             CIRCULAR     26.40      0          0          0          1
T140             CIRCULAR     26.40      0          0          0          1
T135             CIRCULAR     26.40      0          0          0          1
T130             CIRCULAR     26.40      0          0          0          1
T165             CIRCULAR     26.40      0          0          0          1
T160             CIRCULAR     26.40      0          0          0          1
T155             CIRCULAR     26.40      0          0          0          1
T185             CIRCULAR     26.40      0          0          0          1
T180             CIRCULAR     26.40      0          0          0          1
T175             CIRCULAR     26.40      0          0          0          1
T170             CIRCULAR     26.40      0          0          0          1
T200             CIRCULAR     26.40      0          0          0          1
T195             CIRCULAR     26.40      0          0          0          1
T190             CIRCULAR     26.40      0          0          0          1
a037             CIRCULAR     6.00       0          0          0          1
a036             CIRCULAR     6.00       0          0          0          1
a035             CIRCULAR     6.00       0          0          0          1
a034             CIRCULAR     6.00       0          0          0          1
a033             CIRCULAR     6.00       0          0          0          1
a032             CIRCULAR     6.00       0          0          0          1
a030             CIRCULAR     6.00       0          0          0          1
a012             CIRCULAR     6.00       0          0          0          1
a013             CIRCULAR     6.00       0          0          0          1
a015             CIRCULAR     6.00       0          0          0          1
d011             CIRCULAR     6.00       0          0          0          1
d0910            CIRCULAR     6.00       0          0          0          1
d007             CIRCULAR     7.17       0          0          0          1
d006             CIRCULAR     6.00       0          0          0          1
d005             CIRCULAR     6.00       0          0          0          1
d061             CIRCULAR     6.00       0          0          0          1
d004             CIRCULAR     7.17       0          0          0          1
d062             CIRCULAR     6.00       0          0          0          1
x067             CIRCULAR     12.00      0          0          0          1
T340             CIRCULAR     11.70      0          0          0          1
T335             CIRCULAR     11.70      0          0          0          1
T330             CIRCULAR     11.70      0          0          0          1
T325             CIRCULAR     11.70      0          0          0          1
T315             CIRCULAR     11.70      0          0          0          1
a027             CIRCULAR     6.00       0          0          0          1
T310             CIRCULAR     11.70      0          0          0          1
T305             CIRCULAR     11.70      0          0          0          1
T300             CIRCULAR     11.70      0          0          0          1
T295             CIRCULAR     11.70      0          0          0          1
T290             CIRCULAR     11.70      0          0          0          1
T285             CIRCULAR     11.70      0          0          0          1
T280             CIRCULAR     11.70      0          0          0          1
a025             CIRCULAR     6.00       0          0          0          1
T275             CIRCULAR     11.70      0          0          0          1
T270             CIRCULAR     11.70      0          0          0          1
T265             CIRCULAR     11.70      0          0          0          1
T260             CIRCULAR     11.70      0          0          0          1
T023             CIRCULAR     6.00       0          0          0          1
T255             CIRCULAR     11.70      0          0          0          1
T250             CIRCULAR     11.70      0          0          0          1
T245             CIRCULAR     11.70      0          0          0          1
T240             CIRCULAR     11.70      0          0          0          1
a022             CIRCULAR     6.00       0          0          0          1
T235             CIRCULAR     11.70      0          0          0          1
T230             CIRCULAR     11.70      0          0          0          1
T225             CIRCULAR     11.70      0          0          0          1
T220             CIRCULAR     11.70      0          0          0          1
T210             CIRCULAR     11.70      0          0          0          1
T205             CIRCULAR     11.70      0          0          0          1
T201             CIRCULAR     11.70      0          0          0          1
T019             CIRCULAR     6.00       0          0          0          1
T018             CIRCULAR     6.00       0          0          0          1
T215             CIRCULAR     11.70      0          0          0          1
T95              CIRCULAR     6.00       5.96       0          0          1
a016             CIRCULAR     6.00       0          0          0          1

[LOSSES]
;;Link           Inlet      Outlet     Average    Flap Gate
;;-------------- ---------- ---------- ---------- ----------
T000             0          0          0          NO
T015             0          0          0          NO
T010             0          0          0          NO
T005             0          0          0          NO
T055             0          0          0          NO
T050             0          0          0          NO
T045             0          0          0          NO
T040             0          0          0          NO
T035             0          0          0          NO
T030             0          0          0          NO
T025             0          0          0          NO
T020             0          0          0          NO
T075             0          0          0          NO
T070             0          0          0          NO
T065             0          0          0          NO
T060             0          0          0          NO
T110             0          0          0          NO
T105             0          0          0          NO
T100             0          0          0          NO
T095             0          0          0          NO
T085             0          0          0          NO
T080             0          0          0          NO
T090             0          0          0          NO
T125             0          0          0          NO
T120             0          0          0          NO
T115             0          0          0          NO
T150             0          0          0          NO
T145             0          0          0          NO
T140             0          0          0          NO
T135             0          0          0          NO
T130             0          0          0          NO
T165             0          0          0          NO
T160             0          0          0          NO
T155             0          0          0          NO
T185             0          0          0          NO
T180             0          0          0          NO
T175             0          0          0          NO
T170             0          0          0          NO
T200             0          0          0          NO
T195             0          0          0          NO
T190             0          0          0          NO
a037             0          0          0          NO
a036             0          0          0          NO
a035             0          0          0          NO
a034             0          0          0          NO
a033             0          0          0          NO
a032             0          0          0          NO
a030             0          0          0          NO
a012             0          0          0          NO
a013             0          0          0          NO
a015             0          0          0          NO
d011             0          0          0          NO
d0910            0          0          0          NO
d007             0          0          0          NO
d006             0          0          0          NO
d005             0          0          0          NO
d061             0          0          0          NO
d004             0          0          0          NO
d062             0          0          0          NO
x067             0          0          0          NO
T340             0          0          0          NO
T335             0          0          0          NO
T330             0          0          0          NO
T325             0          0          0          NO
T315             0          0          0          NO
a027             0          0          0          NO
T310             0          0          0          NO
T305             0          0          0          NO
T300             0          0          0          NO
T295             0          0          0          NO
T290             0          0          0          NO
T285             0          0          0          NO
T280             0          0          0          NO
a025             0          0          0          NO
T275             0          0          0          NO
T270             0          0          0          NO
T265             0          0          0          NO
T260             0          0          0          NO
T023             0          0          0          NO
T255             0          0          0          NO
T250             0          0          0          NO
T245             0          0          0          NO
T240             0          0          0          NO
a022             0          0          0          NO
T235             0          0          0          NO
T230             0          0          0          NO