;; SWMM5 .inp converted from XPSWMM .xp file
;; Generated by XPSWMM Card Reader
;; Source format: XP_CARD | Original title: design storm; new relief sewers, western pump, pump @ plant

[TITLE]
;;Project Title/Notes
design storm; new relief sewers, western pump, pump @ plant

[OPTIONS]
FLOW_UNITS           CFS
INFILTRATION         HORTON
FLOW_ROUTING         DYNWAVE
LINK_OFFSETS         DEPTH
MIN_SLOPE            0.0
ALLOW_PONDING        NO
SKIP_STEADY_STATE    NO
ROUTING_STEP         00:00:05
VARIABLE_STEP        0.75
INERTIAL_DAMPING     PARTIAL
NORMAL_FLOW_LIMITED  BOTH
MAX_TRIALS           100
HEAD_TOLERANCE       0.0033

[JUNCTIONS]
;;Name           Elev       MaxDepth   InitDepth  SurDepth   Aponded
;;-------------- ---------- ---------- ---------- ---------- ----------
0                600.00     0          0          0          0
0                598.80     0          0          0          0
0                598.80     0          0          0          0
0                610.00     0          0          0          0
0                607.00     0          0          0          0
0                607.00     0          0          0          0
0                608.00     0          0          0          0
0                607.00     0          0          0          0
0                608.00     0          0          0          0
0                610.00     0          0          0          0
0                607.00     0          0          0          0
0                602.00     0          0          0          0
0                600.00     0          0          0          0
0                600.10     0          0          0          0
0                606.00     0          0          0          0
0                600.00     0          0          0          0
0                601.00     0          0          0          0
0                592.00     0          0          0          0
0                598.00     0          0          0          0
0                596.00     0          0          0          0
0                594.00     0          0          0          0
0                598.00     0          0          0          0
0                598.00     0          0          0          0
0                597.00     0          0          0          0
0                595.00     0          0          0          0
0                595.00     0          0          0          0
0                596.00     0          0          0          0
0                596.00     0          0          0          0
0                596.00     0          0          0          0
0                595.00     0          0          0          0
0                596.00     0          0          0          0
0                595.00     0          0          0          0
0                596.00     0          0          0          0
0                596.00     0          0          0          0
0                596.00     0          0          0          0
0                594.00     0          0          0          0
0                594.00     0          0          0          0
0                597.00     0          0          0          0
0                597.00     0          0          0          0
0                596.00     0          0          0          0
0                599.00     0          0          0          0
0                598.60     0          0          0          0
0                602.00     0          0          0          0
0                607.00     0          0          0          0
0                605.00     0          0          0          0
0                609.00     0          0          0          0
0                604.00     0          0          0          0
0                600.00     0          0          0          0
0                607.00     0          0          0          0
0                607.00     0          0          0          0
0                605.00     0          0          0          0
0                605.00     0          0          0          0
0                602.63     0          0          0          0
0                604.00     0          0          0          0
0                606.00     0          0          0          0
0                603.00     0          0          0          0
0                602.00     0          0          0          0
0                599.00     0          0          0          0
0                599.00     0          0          0          0
0                599.00     0          0          0          0
0                598.51     0          0          0          0
0                598.35     0          0          0          0
0                598.80     0          0          0          0
0                596.78     0          0          0          0
0                609.00     0          0          0          0
0                613.00     0          0          0          0
0                605.00     0          0          0          0
0                603.00     0          0          0          0
0                604.00     0          0          0          0
0                603.00     0          0          0          0
0                604.00     0          0          0          0
0                603.00     0          0          0          0
0                604.00     0          0          0          0
0                599.00     0          0          0          0
0                599.00     0          0          0          0
0                599.00     0          0          0          0
0                600.00     0          0          0          0
0                599.00     0          0          0          0
0                600.00     0          0          0          0
0                600.00     0          0          0          0
0                600.00     0          0          0          0
0                600.13     0          0          0          0
0                600.00     0          0          0          0
0                600.04     0          0          0          0
0                600.07     0          0          0          0
0                600.00     0          0          0          0
0                599.00     0          0          0          0
0                599.00     0          0          0          0
0                599.00     0          0          0          0
0                599.00     0          0          0          0
0                599.00     0          0          0          0
0                599.00     0          0          0          0
0                599.00     0          0          0          0
0                601.00     0          0          0          0
0                601.00     0          0          0          0
0                600.00     0          0          0          0
0                600.00     0          0          0          0
0                600.00     0          0          0          0
0                600.00     0          0          0          0
0                600.00     0          0          0          0
0                601.00     0          0          0          0
0                603.00     0          0          0          0
0                603.00     0          0          0          0
0                602.00     0          0          0          0
0                600.00     0          0          0          0
0                601.00     0          0          0          0
0                601.00     0          0          0          0
0                607.00     0          0          0          0
0                608.00     0          0          0          0
0                607.00     0          0          0          0
0                601.00     0          0          0          0
0                600.00     0          0          0          0
0                600.00     0          0          0          0
0                603.00     0          0          0          0
0                602.00     0          0          0          0
0                602.00     0          0          0          0
0                601.00     0          0          0          0
0                600.00     0          0          0          0
0                600.00     0          0          0          0
0                601.00     0          0          0          0
0                607.00     0          0          0          0
0                602.00     0          0          0          0
0                606.00     0          0          0          0
0                603.00     0          0          0          0
0                602.00     0          0          0          0
0                601.00     0          0          0          0
0                600.00     0          0          0          0
0                606.00     0          0          0          0
0                606.00     0          0          0          0
0                606.00     0          0          0          0
0                606.00     0          0          0          0
0                606.00     0          0          0          0
0                607.00     0          0          0          0
0                608.00     0          0          0          0
0                608.00     0          0          0          0
0                603.00     0          0          0          0
0                602.00     0          0          0          0
0                602.00     0          0          0          0
0                603.00     0          0          0          0
0                603.00     0          0          0          0
0                608.00     0          0          0          0
0                610.00     0          0          0          0
0                612.00     0          0          0          0
0                614.00     0          0          0          0
0                600.00     0          0          0          0
0                601.00     0          0          0          0
0                603.00     0          0          0          0
0                604.00     0          0          0          0
0                606.00     0          0          0          0
0                606.00     0          0          0          0
0                604.00     0          0          0          0
0                602.00     0          0          0          0
0                602.00     0          0          0          0
0                602.00     0          0          0          0
0                602.00     0          0          0          0
0                602.00     0          0          0          0
0                601.83     0          0          0          0
0                602.08     0          0          0          0
0                602.00     0          0          0          0
0                604.00     0          0          0          0
0                604.00     0          0          0          0
0                605.00     0          0          0          0
0                603.00     0          0          0          0
0                603.00     0          0          0          0
0                600.00     0          0          0          0
0                599.00     0          0          0          0
0                599.00     0          0          0          0
0                599.00     0          0          0          0
0                600.00     0          0          0          0
0                599.44     0          0          0          0
0                599.32     0          0          0          0
0                599.20     0          0          0          0
0                599.00     0          0          0          0
0                610.00     0          0          0          0
0                601.00     0          0          0          0
0                599.01     0          0          0          0
0                599.37     0          0          0          0
0                606.00     0          0          0          0
0                602.00     0          0          0          0
0                601.00     0          0          0          0
0                601.00     0          0          0          0
0                604.00     0          0          0          0
0                600.00     0          0          0          0
0                602.00     0          0          0          0
0                598.00     0          0          0          0
0                598.00     0          0          0          0
0                597.00     0          0          0          0
0                598.00     0          0          0          0
0                598.00     0          0          0          0
0                598.00     0          0          0          0
0                598.00     0          0          0          0
0                598.00     0          0          0          0
0                599.00     0          0          0          0
0                603.00     0          0          0          0
0                603.00     0          0          0          0
0                603.00     0          0          0          0
0                602.00     0          0          0          0
0                603.00     0          0          0          0
0                601.00     0          0          0          0
0                602.00     0          0          0          0
0                603.00     0          0          0          0
0                602.62     0          0          0          0
0                601.53     0          0          0          0
0                600.00     0          0          0          0
0                599.00     0          0          0          0
0                600.00     0          0          0          0
0                600.92     0          0          0          0
0                599.00     0          0          0          0
0                598.00     0          0          0          0
0                599.00     0          0          0          0
0                599.00     0          0          0          0
0                599.00     0          0          0          0
0                602.00     0          0          0          0
0                605.00     0          0          0          0
0                603.00     0          0          0          0
0                602.00     0          0          0          0
0                599.00     0          0          0          0
0                601.00     0          0          0          0
0                601.00     0          0          0          0
0                599.00     0          0          0          0
0                599.00     0          0          0          0
0                599.00     0          0          0          0
0                599.00     0          0          0          0
0                598.00     0          0          0          0
0                598.00     0          0          0          0
0                598.00     0          0          0          0
0                598.00     0          0          0          0
0                598.00     0          0          0          0
0                598.00     0          0          0          0
0                598.00     0          0          0          0
0                598.00     0          0          0          0
0                599.00     0          0          0          0
0                598.00     0          0          0          0
0                598.08     0          0          0          0
0                599.00     0          0          0          0
0                597.00     0          0          0          0
0                597.00     0          0          0          0
0                598.00     0          0          0          0
0                598.00     0          0          0          0
0                598.00     0          0          0          0
0                597.00     0          0          0          0
0                598.00     0          0          0          0
0                597.00     0          0          0          0
0                599.00     0          0          0          0
0                597.00     0          0          0          0
0                597.00     0          0          0          0
0                597.00     0          0          0          0
0                596.00     0          0          0          0
0                595.00     0          0          0          0
0                595.00     0          0          0          0
0                597.00     0          0          0          0
0                595.00     0          0          0          0
0                596.00     0          0          0          0
0                596.00     0          0          0          0
0                596.00     0          0          0          0
0                597.00     0          0          0          0
0                597.00     0          0          0          0
0                596.00     0          0          0          0
0                595.00     0          0          0          0
0                597.00     0          0          0          0
0                596.00     0          0          0          0
0                596.00     0          0          0          0
0                597.00     0          0          0          0
0                596.00     0          0          0          0
0                596.00     0          0          0          0
0                597.00     0          0          0          0
0                598.00     0          0          0          0
0                596.00     0          0          0          0
0                597.00     0          0          0          0
0                597.00     0          0          0          0
0                596.00     0          0          0          0
0                596.00     0          0          0          0
0                597.00     0          0          0          0
0                597.00     0          0          0          0
0                597.00     0          0          0          0
0                597.00     0          0          0          0
0                598.00     0          0          0          0
0                599.00     0          0          0          0
0                599.00     0          0          0          0
0                599.00     0          0          0          0
0                599.00     0          0          0          0
0                599.00     0          0          0          0
0                599.00     0          0          0          0
0                600.00     0          0          0          0
0                599.00     0          0          0          0
0                599.00     0          0          0          0
0                601.00     0          0          0          0
0                601.00     0          0          0          0
0                599.00     0          0          0          0
0                600.00     0          0          0          0
0                600.00     0          0          0          0
0                601.00     0          0          0          0
0                600.00     0          0          0          0
0                599.00     0          0          0          0
0                601.00     0          0          0          0
0                602.00     0          0          0          0
0                600.00     0          0          0          0
0                603.00     0          0          0          0
0                602.00     0          0          0          0
0                600.00     0          0          0          0
0                600.00     0          0          0          0
0                600.00     0          0          0          0
0                602.00     0          0          0          0
0                601.00     0          0          0          0
0                601.00     0          0          0          0
0                600.00     0          0          0          0
0                600.00     0          0          0          0
0                597.00     0          0          0          0
0                596.00     0          0          0          0
0                597.00     0          0          0          0
0                598.00     0          0          0          0
0                598.00     0          0          0          0
0                597.00     0          0          0          0
0                598.00     0          0          0          0
0                598.00     0          0          0          0
0                593.00     0          0          0          0
0                594.00     0          0          0          0
0                613.00     0          0          0          0
0                599.00     0          0          0          0
0                598.00     0          0          0          0
0                595.00     0          0          0          0
0                596.00     0          0          0          0
0                594.00     0          0          0          0
0                596.00     0          0          0          0
0                598.00     0          0          0          0
0                600.00     0          0          0          0
0                601.00     0          0          0          0
0                601.00     0          0          0          0
0                601.00     0          0          0          0
0                601.00     0          0          0          0
0                596.00     0          0          0          0
0                602.00     0          0          0          0
0                613.00     0          0          0          0
0                617.00     0          0          0          0
0                609.00     0          0          0          0
0                606.00     0          0          0          0
0                604.00     0          0          0          0
0                608.00     0          0          0          0
0                608.00     0          0          0          0
0                606.00     0          0          0          0
0                605.00     0          0          0          0
0                605.00     0          0          0          0
0                606.00     0          0          0          0
0                597.00     0          0          0          0
0                597.00     0          0          0          0
0                596.00     0          0          0          0
0                596.00     0          0          0          0
0                598.00     0          0          0          0
0                596.00     0          0          0          0
0                597.00     0          0          0          0
0                598.00     0          0          0          0
0                598.00     0          0          0          0
0                600.00     0          0          0          0
0                598.00     0          0          0          0
0                597.00     0          0          0          0
0                598.00     0          0          0          0
0                595.00     0          0          0          0
0                595.00     0          0          0          0
0                596.00     0          0          0          0
0                595.00     0          0          0          0
0                596.00     0          0          0          0
0                597.00     0          0          0          0
0                598.00     0          0          0          0
0                597.00     0          0          0          0
0                598.00     0          0          0          0
0                596.00     0          0          0          0
0                598.00     0          0          0          0
0                599.00     0          0          0          0
0                598.00     0          0          0          0
0                599.00     0          0          0          0
0                599.00     0          0          0          0
0                599.00     0          0          0          0
0                599.00     0          0          0          0
0                599.00     0          0          0          0
0                597.00     0          0          0          0
0                598.00     0          0          0          0
0                597.00     0          0          0          0
0                596.00     0          0          0          0
0                598.00     0          0          0          0
0                598.00     0          0          0          0
0                599.00     0          0          0          0
0                597.00     0          0          0          0
0                592.00     0          0          0          0
0                597.00     0          0          0          0
0                600.00     0          0          0          0
0                599.28     0          0          0          0
0                599.00     0          0          0          0
0                602.00     0          0          0          0
0                599.00     0          0          0          0
0                599.00     0          0          0          0
0                599.00     0          0          0          0
0                599.00     0          0          0          0
0                599.00     0          0          0          0
0                602.00     0          0          0          0
0                600.00     0          0          0          0
0                600.00     0          0          0          0
0                600.00     0          0          0          0
0                600.00     0          0          0          0
0                600.00     0          0          0          0
0                600.00     0          0          0          0
0                600.00     0          0          0          0
0                600.00     0          0          0          0
0                600.00     0          0          0          0
0                600.00     0          0          0          0
0                600.00     0          0          0          0
0                600.00     0          0          0          0
0                600.00     0          0          0          0
0                600.00     0          0          0          0
0                600.00     0          0          0          0
0                602.68     0          0          0          0
0                607.00     0          0          0          0
0                608.00     0          0          0          0
0                610.00     0          0          0          0
0                610.00     0          0          0          0
0                610.00     0          0          0          0
0                602.00     0          0          0          0
0                609.00     0          0          0          0
0                601.00     0          0          0          0
0                599.00     0          0          0          0
0                598.00     0          0          0          0
0                599.00     0          0          0          0
0                598.00     0          0          0          0
0                600.00     0          0          0          0
0                600.00     0          0          0          0
0                592.00     0          0          0          0
0                592.00     0          0          0          0
0                600.00     0          0          0          0
0                600.00     0          0          0          0
0                599.00     0          0          0          0
0                599.00     0          0          0          0
0                599.00     0          0          0          0
0                603.00     0          0          0          0
0                600.00     0          0          0          0
0                600.00     0          0          0          0
0                600.00     0          0          0          0
0                600.00     0          0          0          0
0                600.00     0          0          0          0
0                603.00     0          0          0          0
0                596.00     0          0          0          0
0                596.00     0          0          0          0
0                598.00     0          0          0          0
0                595.00     0          0          0          0
0                593.00     0          0          0          0
0                592.00     0          0          0          0
0                592.00     0          0          0          0
0                595.00     0          0          0          0
0                591.00     0          0          0          0
0                593.00     0          0          0          0
0                595.00     0          0          0          0
0                595.00     0          0          0          0
0                594.00     0          0          0          0
0                593.00     0          0          0          0
0                593.00     0          0          0          0
0                593.00     0          0          0          0
0                593.00     0          0          0          0
0                593.00     0          0          0          0
0                590.00     0          0          0          0
0                591.00     0          0          0          0
0                593.00     0          0          0          0
0                592.00     0          0          0          0
0                591.00     0          0          0          0
0                593.00     0          0          0          0
0                592.00     0          0          0          0