;; SWMM5 .inp converted from XPSWMM .xp file
;; Generated by XPSWMM Card Reader
;; Source format: XP_CARD | Original title: Henrico EXTRAN Model - River Road

[TITLE]
;;Project Title/Notes
Henrico EXTRAN Model - River Road

[OPTIONS]
FLOW_UNITS           CFS
INFILTRATION         HORTON
FLOW_ROUTING         DYNWAVE
LINK_OFFSETS         DEPTH
MIN_SLOPE            0.0
ALLOW_PONDING        NO
SKIP_STEADY_STATE    NO
ROUTING_STEP         00:00:10
VARIABLE_STEP        0.75
INERTIAL_DAMPING     NONE
NORMAL_FLOW_LIMITED  BOTH
MAX_TRIALS           30

[JUNCTIONS]
;;Name           Elev       MaxDepth   InitDepth  SurDepth   Aponded
;;-------------- ---------- ---------- ---------- ---------- ----------
196NW013         229.25     0          0          0          0
196NW014         229.86     0          0          0          0
196SW001         198.00     0          0          0          0
196SW002         200.00     0          0          0          0
196SW003         201.50     0          0          0          0
196SW004         203.00     0          0          0          0
196SW020         209.00     0          0          0          0
197SW017         200.14     0          0          0          0
197SW022         204.50     0          0          0          0
197SW024         205.70     0          0          0          0
197SW026         207.00     0          0          0          0
197SW028         210.00     0          0          0          0
197SW029         212.50     0          0          0          0
197SW056         218.60     0          0          0          0
197SW059         221.30     0          0          0          0
197SW062         222.30     0          0          0          0
197SW066         224.40     0          0          0          0
252NW004         198.56     0          0          0          0
252NW016         196.81     0          0          0          0
252NW019         198.81     0          0          0          0
252NW020         202.00     0          0          0          0
252NW021         201.02     0          0          0          0
252NW022         201.00     0          0          0          0
252NW040         203.65     0          0          0          0
252NW041         209.00     0          0          0          0
252NW043         211.10     0          0          0          0
252NW044         210.29     0          0          0          0
252NW056         212.35     0          0          0          0
254SE020         217.66     0          0          0          0
254SE021         217.66     0          0          0          0
254SE023         217.27     0          0          0          0
254SE026         224.00     0          0          0          0
254SE031         203.13     0          0          0          0
254SE033         211.50     0          0          0          0
254SE034         210.86     0          0          0          0
254SE035         211.50     0          0          0          0
254SE036         211.00     0          0          0          0
254SE037         208.72     0          0          0          0
254SE045         210.73     0          0          0          0
254SE046         212.00     0          0          0          0
254SE078         212.80     0          0          0          0
254SE081         213.52     0          0          0          0
254SE082         214.40     0          0          0          0
254SW008         184.00     0          0          0          0
254SW013         193.91     0          0          0          0
254SW021         178.45     0          0          0          0
254SW025         193.77     0          0          0          0
254SW034         178.10     0          0          0          0
254SW043         203.96     0          0          0          0
254SW045         201.50     0          0          0          0
254SW054         201.67     0          0          0          0
254SW056         200.00     0          0          0          0
255NE011         172.00     0          0          0          0
255NE022         171.00     0          0          0          0
255NE024         179.50     0          0          0          0
255NE034         178.74     0          0          0          0
255NE045         178.74     0          0          0          0
255NE046         180.50     0          0          0          0
255NE047         183.09     0          0          0          0
255NE048         187.11     0          0          0          0
255NE059         190.05     0          0          0          0
255NE078         186.80     0          0          0          0
255NE079         189.50     0          0          0          0
255NE080         191.80     0          0          0          0
255NE083         194.50     0          0          0          0
255NE084         194.80     0          0          0          0
255NW005         153.72     0          0          0          0
255NW006         156.64     0          0          0          0
255NW008         156.70     0          0          0          0
255NW013         163.78     0          0          0          0
255NW017         149.01     0          0          0          0
255NW019         148.50     0          0          0          0
255NW030         146.96     0          0          0          0
255NW044         146.29     0          0          0          0
256NE001         160.17     0          0          0          0
256NE011         160.66     0          0          0          0
256NE018         160.71     0          0          0          0
256NE024         158.88     0          0          0          0
256NE025         158.12     0          0          0          0
256NW001         202.85     0          0          0          0
256NW002         187.59     0          0          0          0
256NW003         177.99     0          0          0          0
256NW004         171.35     0          0          0          0
256NW005         170.87     0          0          0          0
256NW006         169.37     0          0          0          0
256NW007         166.86     0          0          0          0
256NW008         158.91     0          0          0          0
256NW009         153.11     0          0          0          0
256NW010         157.46     0          0          0          0
256NW025         197.54     0          0          0          0
256SE025         168.80     0          0          0          0
256SE027         171.26     0          0          0          0
256SE038         168.14     0          0          0          0
256SE048         174.70     0          0          0          0
256SE049         179.55     0          0          0          0
256SE050         183.00     0          0          0          0
256SE051         183.00     0          0          0          0
256SE052         186.27     0          0          0          0
256SE053         195.23     0          0          0          0
256SE054         196.86     0          0          0          0
256SE085         163.00     0          0          0          0
256SW007         154.93     0          0          0          0
256SW008         158.91     0          0          0          0
256SW016         153.50     0          0          0          0
256SW026         151.90     0          0          0          0
256SW028         155.74     0          0          0          0
256SW029         153.85     0          0          0          0
256SW036         151.92     0          0          0          0
256SW037         154.78     0          0          0          0
256SW038         156.74     0          0          0          0
256SW039         159.60     0          0          0          0
256SW048         152.02     0          0          0          0
256SW051         151.30     0          0          0          0
256SW052         151.36     0          0          0          0
256SW062         152.48     0          0          0          0
257NE003         175.93     0          0          0          0
257NE004         175.13     0          0          0          0
257NE009         176.00     0          0          0          0
257NE010         172.36     0          0          0          0
257NE014         170.51     0          0          0          0
257NE024         181.00     0          0          0          0
257NE026         177.47     0          0          0          0
257NE027         175.39     0          0          0          0
257NE029         172.80     0          0          0          0
257NE030         170.83     0          0          0          0
257NE032         172.01     0          0          0          0
257NE033         171.70     0          0          0          0
257NE034         174.48     0          0          0          0
257NE035         168.90     0          0          0          0
257NE036         167.58     0          0          0          0
257NE040         189.16     0          0          0          0
257NE041         171.26     0          0          0          0
257SE001         166.34     0          0          0          0
257SE002         166.70     0          0          0          0
257SE003         167.50     0          0          0          0
257SE004         164.72     0          0          0          0
257SE005         163.78     0          0          0          0
257SE006         162.74     0          0          0          0
257SE007         161.98     0          0          0          0
258NE037         215.00     0          0          0          0
258NE038         212.00     0          0          0          0
258NE039         218.38     0          0          0          0
258NE040         216.46     0          0          0          0
258NE041         223.20     0          0          0          0
258NE042         219.30     0          0          0          0
258NW024         180.36     0          0          0          0
258NW026         182.00     0          0          0          0
258NW027         185.20     0          0          0          0
258NW028         193.97     0          0          0          0
258NW029         205.07     0          0          0          0
258NW030         199.10     0          0          0          0
258NW031         200.78     0          0          0          0
258NW033         203.43     0          0          0          0
258NW034         206.16     0          0          0          0
258NW036         207.05     0          0          0          0
258SE004         223.53     0          0          0          0
258SE007         227.90     0          0          0          0
258SE008         231.20     0          0          0          0
319NE004         196.20     0          0          0          0
320NE034         174.50     0          0          0          0
320NE037         179.23     0          0          0          0
320NE039         178.50     0          0          0          0
320NE041         177.50     0          0          0          0
320NE042         177.50     0          0          0          0
320NE043         179.00     0          0          0          0
320NW028         145.30     0          0          0          0
320NW030         155.00     0          0          0          0
320NW034         158.00     0          0          0          0
320NW042         170.70     0          0          0          0
320SE020         184.12     0          0          0          0
320SE038         188.44     0          0          0          0
320SE046         189.29     0          0          0          0
320SE065         192.16     0          0          0          0
320SE067         192.60     0          0          0          0
320SE072         195.91     0          0          0          0
321NW011         140.11     0          0          0          0
321NW046         134.27     0          0          0          0
321NW055         136.10     0          0          0          0
321SE003         147.57     0          0          0          0
321SE004         148.87     0          0          0          0
321SE005         150.28     0          0          0          0
321SE010         152.49     0          0          0          0
321SE011         153.14     0          0          0          0
321SE012         168.29     0          0          0          0
321SE013         169.95     0          0          0          0
321SE014         170.60     0          0          0          0
321SE020         158.05     0          0          0          0
321SE022         156.96     0          0          0          0
321SE023         161.36     0          0          0          0
321SE024         161.90     0          0          0          0
321SE027         158.34     0          0          0          0
321SE029         164.05     0          0          0          0
321SE042         161.60     0          0          0          0
321SW001         133.30     0          0          0          0
321SW005         133.61     0          0          0          0
321SW010         135.24     0          0          0          0
321SW011         137.97     0          0          0          0
321SW018         135.04     0          0          0          0
321SW020         139.87     0          0          0          0
321SW021         137.90     0          0          0          0
321SW022         140.09     0          0          0          0
321SW023         141.24     0          0          0          0
321SW024         142.72     0          0          0          0
321SW025         144.94     0          0          0          0
321SW026         146.00     0          0          0          0
321SW045         134.45     0          0          0          0
322NE108         145.07     0          0          0          0
322NE109         145.61     0          0          0          0
322NE110         146.13     0          0          0          0
322SE002         144.75     0          0          0          0
322SE003         142.57     0          0          0          0
322SE004         145.49     0          0          0          0
322SE009         144.66     0          0          0          0
322SE016         143.51     0          0          0          0
322SE026         140.76     0          0          0          0
322SE035         142.65     0          0          0          0
322SE045         147.56     0          0          0          0
322SE062         141.46     0          0          0          0
323NE004         174.60     0          0          0          0
323NE014         175.25     0          0          0          0
323NE016         173.58     0          0          0          0
323NE024         172.13     0          0          0          0
323NE025         171.50     0          0          0          0
323NE035         171.36     0          0          0          0
323NE050         170.75     0          0          0          0
323NE070         170.50     0          0          0          0
323NE082         169.00     0          0          0          0
323NE097         169.12     0          0          0          0
323NE115         167.77     0          0          0          0
323SE009         163.80     0          0          0          0
323SE021         159.75     0          0          0          0
323SE028         160.20     0          0          0          0
323SE029         159.86     0          0          0          0
323SE037         158.28     0          0          0          0
323SE050         157.00     0          0          0          0
325SE055         212.00     0          0          0          0
324NW008         205.00     0          0          0          0
324NW009         206.50     0          0          0          0
324NW011         206.40     0          0          0          0
324NW012         207.50     0          0          0          0
324NW013         209.00     0          0          0          0
324NW014         200.25     0          0          0          0
324NW015         200.75     0          0          0          0
324NW016         197.85     0          0          0          0
324NW017         195.45     0          0          0          0
324NW018         197.35     0          0          0          0
324NW019         198.00     0          0          0          0
324NW043         189.71     0          0          0          0
324NW047         193.95     0          0          0          0
324NW048         186.50     0          0          0          0
324SE006         187.10     0          0          0          0
324SE013         189.10     0          0          0          0
324SE039         184.10     0          0          0          0
324SE040         180.70     0          0          0          0
324SE041         180.60     0          0          0          0
324SE065         177.21     0          0          0          0
324SE070         176.75     0          0          0          0
324SW036         180.15     0          0          0          0
324SW051         179.63     0          0          0          0
325NE005         253.40     0          0          0          0
325NE007         253.60     0          0          0          0
325NE008         256.80     0          0          0          0
325NE009         246.50     0          0          0          0
325NE010         242.00     0          0          0          0
325NE011         246.00     0          0          0          0
325NE012         239.30     0          0          0          0
325NE016         238.30     0          0          0          0
325NE019         237.40     0          0          0          0
325NE022         235.80     0          0          0          0
325SE001         237.30     0          0          0          0
325SE003         232.00     0          0          0          0
325SE011         229.50     0          0          0          0
325SE017         224.50     0          0          0          0
325SE018         225.50     0          0          0          0
325SE019         229.50     0          0          0          0
325SE033         223.00     0          0          0          0
325SE047         221.00     0          0          0          0
325SE054         211.00     0          0          0          0
324NE001         216.00     0          0          0          0
325SE056         218.50     0          0          0          0
326SE035         177.25     0          0          0          0
326SE036         175.73     0          0          0          0
327NW037         204.50     0          0          0          0
327NW041         195.00     0          0          0          0
327NW043         194.00     0          0          0          0
327NW045         190.50     0          0          0          0
327NW050         190.00     0          0          0          0
327SW002         187.00     0          0          0          0
327SW007         182.50     0          0          0          0
327SW012         181.50     0          0          0          0
327SW013         190.50     0          0          0          0
327SW015         180.50     0          0          0          0
327SW016         210.25     0          0          0          0
327SW017         219.00     0          0          0          0
327SW019         180.00     0          0          0          0
327SW020         220.97     0          0          0          0
327SW023         179.00     0          0          0          0
327SW031         178.50     0          0          0          0
327SW034         178.50     0          0          0          0
327SW038         176.50     0          0          0          0
327SW041         176.25     0          0          0          0
395NE001         131.65     0          0          0          0
395NE015         127.47     0          0          0          0
395NE026         125.20     0          0          0          0
395NE033         147.00     0          0          0          0
395NE036         140.80     0          0          0          0
395NE037         141.65     0          0          0          0
395NE039         127.50     0          0          0          0
395NW002         132.33     0          0          0          0
395NW003         133.59     0          0          0          0
396NE006         136.48     0          0          0          0
396NE007         138.10     0          0          0          0
396NE022         135.28     0          0          0          0
396NE031         135.41     0          0          0          0
396NE038         134.17     0          0          0          0
396NE047         134.59     0          0          0          0
396NE063         132.25     0          0          0          0
396NW053         131.95     0          0          0          0
396NW054         128.05     0          0          0          0
396SE017         130.00     0          0          0          0
396SE021         139.81     0          0          0          0
396SE024         133.00     0          0          0          0
396SE025         132.51     0          0          0          0
396SE035         128.53     0          0          0          0
396SE036         136.27     0          0          0          0
396SE039         132.45     0          0          0          0
396SE040         134.50     0          0          0          0
396SE041         135.00     0          0          0          0
396SE044         138.63     0          0          0          0
396SE064         128.04     0          0          0          0
396SE065         133.01     0          0          0          0
396SW001         127.85     0          0          0          0
396SW002         127.05     0          0          0          0
396SW005         137.48     0          0          0          0
396SW006         138.16     0          0          0          0
396SW007         136.90     0          0          0          0
396SW019         126.41     0          0          0          0
396SW028         132.95     0          0          0          0
397NE006         155.00     0          0          0          0
397NE017         156.00     0          0          0          0
397NE037         151.50     0          0          0          0
397NE049         150.50     0          0          0          0
397NE050         149.00     0          0          0          0
397NE058         149.96     0          0          0          0
397SE004         149.00     0          0          0          0
397SE012         146.03     0          0          0          0
397SE019         145.00     0          0          0          0
397SE029         143.94     0          0          0          0
397SE045         143.04     0          0          0          0
397SE053         140.04     0          0          0          0
397SE064         138.52     0          0          0          0
398NW001         191.00     0          0          0          0
398NW003         192.10     0          0          0          0
398SE014         164.53     0          0          0          0
398SE019         163.50     0          0          0          0
398SE027         160.92     0          0          0          0
398SE053         161.90     0          0          0          0
398SE054         157.08     0          0          0          0
399SW012         204.92     0          0          0          0
399SW025         201.99     0          0          0          0
399SW027         203.95     0          0          0          0
399SW045         202.15     0          0          0          0
399SW046         202.89     0          0          0          0
399SW047         201.70     0          0          0          0
399SW048         200.03     0          0          0          0
399SW053         197.60     0          0          0          0
399SW054         199.33     0          0          0          0
399SW055         197.64     0          0          0          0
400NE003         239.50     0          0          0          0
400NW019         240.82     0          0          0          0
400NW020         237.50     0          0          0          0
400NW021         237.50     0          0          0          0
400NW022         237.50     0          0          0          0
400NW023         238.20     0          0          0          0
400NW024         239.80     0          0          0          0
400NW025         242.50     0          0          0          0
400NW029         248.79     0          0          0          0
400NW030         244.40     0          0          0          0
400NW031         255.79     0          0          0          0
400NW032         243.36     0          0          0          0
400NW039         240.80     0          0          0          0
400NW049         239.57     0          0          0          0
400NW052         241.00     0          0          0          0
400NW054         241.44     0          0          0          0
400NW058         238.99     0          0          0          0
400NW059         247.88     0          0          0          0
400SW019         202.30     0          0          0          0
479NE001         134.46     0          0          0          0
479NE002         135.86     0          0          0          0
479NE003         131.05     0          0          0          0
479NE004         133.26     0          0          0          0
479NE005         130.85     0          0          0          0
479NE006         132.27     0          0          0          0
479NE007         131.00     0          0          0          0
479NE008         140.80     0          0          0          0
479NE009         138.53     0          0          0          0
479NE010         133.60     0          0          0          0
479NE011         131.97     0          0          0          0
479NE013         131.86     0          0          0          0
479NE014         131.06     0          0          0          0
479NE015         131.06     0          0          0          0
479NW001         137.46     0          0          0          0
479NW002         134.01     0          0          0          0
479NW003         136.00     0          0          0          0
479NW004         137.46     0          0          0          0
480NE009         149.56     0          0          0          0
480NE011         150.54     0          0          0          0
480NE015         147.55     0          0          0          0
480NE035         149.55     0          0          0          0
480NE054         144.91     0          0          0          0
480NE056         149.75     0          0          0          0
480NE071         147.55     0          0          0          0
480NE076         141.96     0          0          0          0
480NE079         142.36     0          0          0          0
480NW001         139.81     0          0          0          0
480NW007         144.31     0          0          0          0
480NW012         142.79     0          0          0          0
480NW019         138.91     0          0          0          0
480NW024         145.21     0          0          0          0
480NW028         138.09     0          0          0          0
480NW031         140.68     0          0          0          0
480SE001         144.51     0          0          0          0
480SE005         140.61     0          0          0          0
480SE013         138.91     0          0          0          0
480SE016         137.96     0          0          0          0
480SE031         141.26     0          0          0          0
480SE060         146.22     0          0          0          0
480SW004         142.15     0          0          0          0
480SW008         138.06     0          0          0          0
480SW011         134.24     0          0          0          0
480SW012         139.01     0          0          0          0
480SW013         134.81     0          0          0          0
480SW014         133.86     0          0          0          0
481NE011         180.00     0          0          0          0
481NE029         179.00     0          0          0          0
481NE046         172.50     0          0          0          0
481NE058         171.50     0          0          0          0
481NE083         168.00     0          0          0          0
481NE085         167.00     0          0          0          0
481NE086         160.50     0          0          0          0
481NE092         183.00     0          0          0          0
481SE003         159.50     0          0          0          0
481SE042         152.30     0          0          0          0
481SE057         160.94     0          0          0          0
481SE058         149.78     0          0          0          0
481SE060         150.05     0          0          0          0
481SE077         148.08     0          0          0          0
481SW029         148.65     0          0          0          0
481SW030         153.00     0          0          0          0
481SW042         140.91     0          0          0          0
481SW043         145.50     0          0          0          0
481SW044         146.52     0          0          0          0
481SW045         141.93     0          0          0          0
482NE007         166.50     0          0          0          0
482NE008         167.39     0          0          0          0
482NE018         175.55     0          0          0          0
482NE020         168.52     0          0          0          0
482NE021         170.14     0          0          0          0
482NE022         168.60     0          0          0          0
482NE038         166.17     0          0          0          0
482NE039         169.00     0          0          0          0
482NE040         169.12     0          0          0          0
482NE041         167.40     0          0          0          0
482NE042         168.91     0          0          0          0
482NE043         167.22     0          0          0          0