;; SWMM5 .inp converted from XPSWMM .xp file
;; Generated by XPSWMM Card Reader
;; Source format: XP_CARD | Original title: ERIE ACT 537 STUDY

[TITLE]
;;Project Title/Notes
ERIE ACT 537 STUDY

[OPTIONS]
FLOW_UNITS           CFS
INFILTRATION         HORTON
FLOW_ROUTING         DYNWAVE
LINK_OFFSETS         DEPTH
MIN_SLOPE            0.0
ALLOW_PONDING        NO
SKIP_STEADY_STATE    NO
ROUTING_STEP         00:00:60
VARIABLE_STEP        0.75
INERTIAL_DAMPING     PARTIAL
NORMAL_FLOW_LIMITED  BOTH
MAX_TRIALS           50

[JUNCTIONS]
;;Name           Elev       MaxDepth   InitDepth  SurDepth   Aponded
;;-------------- ---------- ---------- ---------- ---------- ----------
1000             23.18      0          0          0          0
1003             21.70      0          0          0          0
1005             22.11      0          0          0          0
1007             23.10      0          0          0          0
1001             24.10      0          0          0          0
1002             22.00      0          0          0          0
1004             26.00      0          0          0          0
1006             26.70      0          0          0          0
1008             32.20      0          0          0          0
1010             25.80      0          0          0          0
1012             30.50      0          0          0          0
1014             35.00      0          0          0          0
1013             58.00      0          0          0          0
NPDES037         10.00      0          0          0          0
1032             45.50      0          0          0          0
1033             37.00      0          0          0          0
1035             50.00      0          0          0          0
1030             45.03      0          0          0          0
1031             42.39      0          0          0          0
1034             35.00      0          0          0          0
1036             43.10      0          0          0          0
1052             42.90      0          0          0          0
1054             38.75      0          0          0          0
1056             38.50      0          0          0          0
1058             40.60      0          0          0          0
NPDES            35.00      0          0          0          0
1059             64.20      0          0          0          0
1060             53.30      0          0          0          0
1061             56.19      0          0          0          0
1062             63.48      0          0          0          0
1063             53.73      0          0          0          0
1064             56.30      0          0          0          0
1065             61.88      0          0          0          0
1066             67.00      0          0          0          0
1067             68.93      0          0          0          0
1069             55.00      0          0          0          0
1037             0          0          0          0          0
1038             0          0          0          0          0
1041             0          0          0          0          0
1040             40.00      0          0          0          0
NPDES033         60.00      0          0          0          0
1042             67.00      0          0          0          0
NPDES034         40.00      0          0          0          0
1120             0          0          0          0          0
1122             0          0          0          0          0
1124             0          0          0          0          0
1126             0          0          0          0          0
1128             0          0          0          0          0
1130             0          0          0          0          0
1132             0          0          0          0          0
1134             0          0          0          0          0
1136             0          0          0          0          0
1138             0          0          0          0          0
1139             0          0          0          0          0
316              0          0          0          0          0
319              40.60      0          0          0          0
322              67.00      0          0          0          0
324              68.66      0          0          0          0
MCI              22.50      0          0          0          0
332              37.00      0          0          0          0
NPDES035         35.00      0          0          0          0
336              58.00      0          0          0          0
NPDES002         23.18      0          0          0          0
340              22.00      0          0          0          0

[CONDUITS]
;;Name           From             To               Length     Roughness  InOffset   OutOffset  InitFlow   MaxFlow
;;-------------- ---------------- ---------------- ---------- ---------- ---------- ---------- ---------- ----------
100              1002             MCI              664.00     0.0130     15.61      15.03      0          0
102              1000             1001             250.00     0.0130     14.93      14.69      0          0
106              1003             1005             300.00     0.0130     13.86      13.63      0          0
260.1            260.2            1007             45.00      0.0130     0.14       0          0          0
101              1007             1001             170.00     0.0130     14.93      14.69      0          0
104              1001             1005             225.00     0.0130     14.69      13.63      0          0
103              1004             1002             1449.00    0.0130     16.97      15.61      0          0
105              1006             1004             739.00     0.0130     17.65      16.97      0          0
107              1008             1006             405.00     0.0130     18.01      17.65      0          0
109              1010             1008             415.00     0.0130     18.41      18.01      0          0
111              1012             1010             328.00     0.0130     18.75      18.41      0          0
113              1014             1012             200.00     0.0130     22.34      21.75      0          0
131              1032             1012             196.00     0.0130     20.06      19.86      0          0
112              1013             1014             396.00     0.0130     24.86      22.46      0          0
37               336              NPDES037         1200.00    0.0130     20.86      2.86       0          0
132              1033             1032             40.00      0.0130     31.40      25.06      0          0
35               1033             1035             100.00     0.0130     31.40      31.20      0          0
130              1030             1032             238.00     0.0130     20.42      20.06      0          0
133              1031             1030             448.00     0.0130     21.29      20.42      0          0
134              1034             1031             283.00     0.0130     22.00      21.29      0          0
135              1036             1034             1810.00    0.0130     28.28      22.26      0          0
151              1052             1036             75.00      0.0130     28.75      28.25      0          0
141              1040             1052             600.00     0.0130     29.27      28.75      0          0
153              1054             1052             1755.00    0.0130     30.66      29.75      0          0
155              1056             1054             875.00     0.0130     31.50      30.66      0          0
157              1058             1056             1820.00    0.0130     34.60      31.50      0          0
159              1059             1058             387.00     0.0130     37.32      34.60      0          0
160              1060             1059             579.00     0.0130     40.46      37.32      0          0
161              1061             1060             102.00     0.0130     41.08      40.66      0          0
162              1062             1061             137.00     0.0130     41.91      41.08      0          0
163              1063             1062             201.00     0.0130     43.35      41.91      0          0
164              1064             1063             104.00     0.0130     44.06      43.35      0          0
165              1065             1064             70.00      0.0130     44.75      44.06      0          0
166              1066             1065             298.00     0.0130     46.39      44.75      0          0
168              1067             1066             76.00      0.0130     46.85      46.39      0          0
172              1069             1067             21.00      0.0130     47.98      47.85      0          0
136              1037             1036             75.00      0.0130     19.50      0          0          0
137              1038             1037             370.00     0.0130     3.70       0          0          0
33               324              NPDES033         400.00     0.0130     26.50      18.50      0          0
140              1120             1041             755.00     0.0130     0.09       0          0          0
143              1042             1040             73.00      0.0130     29.41      29.29      0          0
220              1122             1120             850.00     0.0130     0.94       0          0          0
223              1124             1122             345.00     0.0130     0.17       0          0          0
225              1126             1124             1350.00    0.0130     1.49       0          0          0
227              1128             1126             415.00     0.0130     0.46       0          0          0
229              1130             1128             795.00     0.0130     0.87       0          0          0
230              1132             1130             611.00     0.0130     0.67       0          0          0
233              1134             1132             114.00     0.0130     0.13       0          0          0
235              1136             1134             654.00     0.0130     0.72       0          0          0
237              1138             1136             899.00     0.0130     0.99       0          0          0
239              1139             1138             86.00      0.0130     0.39       0          0          0
145              139              ?                60.00      0.0130     1.18       0          0          0
146              138              ?                102.00     0.0130     1.31       0          0          0
327              ?                ?                60.00      0.0140     15.03      14.93      0          0
331              ?                ?                40.00      0.0140     14.69      13.86      0          0
335              ?                ?                100.00     0.0140     31.40      29.40      0          0
341              ?                ?                40.00      0.0140     13.63      13.43      0          0

[ORIFICES]
;;Name           From             To               Type       Offset     Qcoeff     Gated    CloseTime
;;-------------- ---------------- ---------------- ---------- ---------- ---------- -------- ----------
325              ?                ?                SIDE       0          0.650      NO       0

[WEIRS]
;;Name           From             To               Type       CrestHt    Qcoeff     Gated    EndCon   EndCoeff   Surcharge
;;-------------- ---------------- ---------------- ---------- ---------- ---------- -------- -------- ---------- ----------
283.1            319              NPDES            TRANSVERSE 0          1.840      NO       0        0          YES
303.1            322              NPDES034         TRANSVERSE 0          1.840      NO       0        0          YES
320              ?                ?                TRANSVERSE 38.35      1.840      NO       0        0          YES
323              ?                ?                TRANSVERSE 32.57      1.840      NO       0        0          YES
333              ?                ?                TRANSVERSE 32.23      1.840      NO       0        0          YES
337              ?                ?                TRANSVERSE 25.91      1.840      NO       0        0          YES
339              ?                ?                TRANSVERSE 21.60      1.840      NO       0        0          YES

[XSECTIONS]
;;Link           Shape        Geom1      Geom2      Geom3      Geom4      Barrels
;;-------------- ------------ ---------- ---------- ---------- ---------- ----------
100              CIRCULAR     4.70       0          0          0          1
102              CIRCULAR     5.00       0          0          0          1
106              CIRCULAR     5.00       0          0          0          1
260.1            CIRCULAR     2.80       0          0          0          1
101              CIRCULAR     5.00       0          0          0          1
104              CIRCULAR     5.00       0          0          0          1
103              CIRCULAR     4.70       0          0          0          1
105              CIRCULAR     4.70       0          0          0          1
107              CIRCULAR     4.70       0          0          0          1
109              CIRCULAR     4.70       0          0          0          1
111              CIRCULAR     4.70       0          0          0          1
113              CIRCULAR     2.00       0          0          0          1
131              CIRCULAR     5.00       0          0          0          1
112              CIRCULAR     2.00       0          0          0          1
37               CIRCULAR     4.00       0          0          0          1
132              CIRCULAR     0.83       0          0          0          1
35               CIRCULAR     1.50       0          0          0          1
130              CIRCULAR     5.00       0          0          0          1
133              CIRCULAR     5.00       0          0          0          1
134              CIRCULAR     5.00       0          0          0          1
135              CIRCULAR     3.50       0          0          0          1
151              CIRCULAR     3.50       0          0          0          1
141              CIRCULAR     3.00       0          0          0          1
153              CIRCULAR     2.00       0          0          0          1
155              CIRCULAR     2.00       0          0          0          1
157              CIRCULAR     2.00       0          0          0          1
159              CIRCULAR     2.50       0          0          0          1
160              CIRCULAR     2.50       0          0          0          1
161              CIRCULAR     3.50       0          0          0          1
162              CIRCULAR     3.50       0          0          0          1
163              CIRCULAR     3.50       0          0          0          1
164              CIRCULAR     3.50       0          0          0          1
165              CIRCULAR     3.50       0          0          0          1
166              CIRCULAR     3.50       0          0          0          1
168              CIRCULAR     3.50       0          0          0          1
172              CIRCULAR     3.50       0          0          0          1
136              CIRCULAR     2.50       0          0          0          1
137              CIRCULAR     2.50       0          0          0          1
33               CIRCULAR     3.00       0          0          0          1
140              CIRCULAR     4.50       0          0          0          1
143              CIRCULAR     3.00       3.00       0          0          1
220              CIRCULAR     4.50       0          0          0          1
223              CIRCULAR     4.50       0          0          0          1
225              CIRCULAR     4.50       0          0          0          1
227              CIRCULAR     4.50       0          0          0          1
229              CIRCULAR     4.50       0          0          0          1
230              CIRCULAR     4.50       0          0          0          1
233              CIRCULAR     4.50       0          0          0          1
235              CIRCULAR     4.50       0          0          0          1
237              CIRCULAR     4.50       0          0          0          1
239              CIRCULAR     3.50       0          0          0          1
145              CIRCULAR     1.25       0          0          0          1
146              CIRCULAR     1.75       0          0          0          1
327              CIRCULAR     4.70       0          0          0          1
331              CIRCULAR     5.00       0          0          0          1
335              CIRCULAR     1.50       0          0          0          1
341              CIRCULAR     5.00       0          0          0          1
325              RECT_CLOSED  0          0          0          0          
283.1            RECT_OPEN    0          16.50      0          0          
303.1            RECT_OPEN    0          14.20      0          0          
320              RECT_OPEN    0          5.00       0          0          
323              RECT_OPEN    0          4.00       0          0          
333              RECT_OPEN    0          4.00       0          0          
337              RECT_OPEN    0          4.00       0          0          
339              RECT_OPEN    0          4.00       0          0          

[LOSSES]
;;Link           Inlet      Outlet     Average    Flap Gate
;;-------------- ---------- ---------- ---------- ----------
100              0          0          0          NO
102              0          0          0          NO
106              0          0          0          NO
260.1            0          0          0          NO
101              0          0          0          NO
104              0          0          0          NO
103              0          0          0          NO
105              0          0          0          NO
107              0          0          0          NO
109              0          0          0          NO
111              0          0          0          NO
113              0          0          0          NO
131              0          0          0          NO
112              0          0          0          NO
37               0          0          0          NO
132              0          0          0          NO
35               0          0          0          NO
130              0          0          0          NO
133              0          0          0          NO
134              0          0          0          NO
135              0          0          0          NO
151              0          0          0          NO
141              0          0          0          NO
153              0          0          0          NO
155              0          0          0          NO
157              0          0          0          NO
159              0          0          0          NO
160              0          0          0          NO
161              0          0          0          NO
162              0          0          0          NO
163              0          0          0          NO
164              0          0          0          NO
165              0          0          0          NO
166              0          0          0          NO
168              0          0          0          NO
172              0          0          0          NO
136              0          0          0          NO
137              0          0          0          NO
33               0          0          0          NO
140              0          0          0          NO
143              0          0          0          NO
220              0          0          0          NO
223              0          0          0          NO
225              0          0          0          NO
227              0          0          0          NO
229              0          0          0          NO
230              0          0          0          NO
233              0          0          0          NO
235              0          0          0          NO
237              0          0          0          NO
239              0          0          0          NO
145              0          0          0          NO
146              0          0          0          NO
327              0          0          0          NO
331              0          0          0          NO
335              0          0          0          NO
341              0          0          0          NO

[COORDINATES]
;;Node           X-Coord            Y-Coord
;;-------------- ------------------ ------------------
1000             -2616.31           3132.56           
1003             -2616.31           3226.10           
1005             -2672.00           3249.32           
1007             -2608.77           3155.08           
1001             -2616.69           3209.49           
1002             -2616.16           3075.47           
1004             -2608.86           2886.84           
1006             -2602.95           2821.79           
1008             -2580.87           2745.60           
1010             -2574.52           2710.76           
1012             -2574.34           2666.02           
1014             -2542.68           2651.81           
1013             -2504.98           2648.60           
NPDES037         -2653.01           2689.91           
1032             -2585.38           2642.03           
1033             -2580.23           2639.58           
1035             -2590.15           2611.89           
1030             -2596.96           2611.04           
1031             -2605.90           2558.82           
1034             -2612.15           2521.38           
1036             -2577.76           2300.01           
1052             -2579.87           2284.17           
1054             -2574.27           2059.53           
1056             -2585.04           1970.98           
1058             -2441.92           1785.12           
NPDES            -2611.83           1780.77           
1059             -2394.51           1784.31           
1060             -2395.27           1722.78           
1061             -2385.94           1723.48           
1062             -2371.20           1710.46           
1063             -2370.30           1687.24           
1064             -2361.27           1675.00           
1065             -2372.23           1669.18           
1066             -2318.08           1610.97           
1067             -2310.86           1596.53           
1069             -2345.53           1542.56           
1037             -2573.30           2293.12           
1038             -2566.08           2284.31           
1041             -2540.20           2243.68           
1040             -2554.30           2234.08           
NPDES033         -2707.68           2235.54           
1042             -2542.28           2224.34           
NPDES034         -2637.93           2179.08           
1120             -2539.95           2156.44           
1122             -2540.30           2058.92           
1124             -2491.46           2060.26           
1126             -2492.91           1876.54           
1128             -2442.80           1877.01           
1130             -2342.94           1876.96           
1132             -2342.96           1806.18           
1134             -2346.19           1761.46           
1136             -2344.14           1698.30           
1138             -2289.49           1607.59           
1139             -2292.73           1516.46           
316              -2555.12           2266.59           
319              -2450.86           1780.65           
322              -2552.82           2214.99           
324              -2572.93           2231.67           
MCI              -2616.00           3101.00           
332              -2573.38           2648.66           
NPDES035         -2636.82           2726.28           
336              -2524.63           2668.54           
NPDES002         -2629.86           3135.32           
340              -2691.04           3261.73           

[MAP]
DIMENSIONS -2707.68 1516.46 -2289.49 3261.73
Units      None

[REPORT]
INPUT            YES
SUBCATCHMENTS    ALL
NODES            ALL
LINKS            ALL



