;; SWMM5 .inp converted from XPSWMM .xp file
;; Generated by XPSWMM Card Reader
;; Source format: XP_CARD | Original title: (none)

[TITLE]
;;Project Title/Notes
Converted from XPSWMM .xp file

[OPTIONS]
FLOW_UNITS           CMS
INFILTRATION         HORTON
FLOW_ROUTING         DYNWAVE
LINK_OFFSETS         DEPTH
MIN_SLOPE            0.0
ALLOW_PONDING        NO
SKIP_STEADY_STATE    NO
ROUTING_STEP         00:00:60
VARIABLE_STEP        0.75
INERTIAL_DAMPING     PARTIAL
NORMAL_FLOW_LIMITED  BOTH
MAX_TRIALS           50

[JUNCTIONS]
;;Name           Elev       MaxDepth   InitDepth  SurDepth   Aponded
;;-------------- ---------- ---------- ---------- ---------- ----------
MH5              37.60      0          36.58      0          0
MH6              37.60      0          36.53      0          0
MH7              37.60      0          36.51      0          0
282              37.60      0          35.51      0          0
281              37.60      0          36.50      0          0
280              37.60      0          36.50      0          0
313              37.60      0          36.50      0          0
278              37.60      0          36.50      0          0
312              37.20      0          35.78      0          0
MH3              37.20      0          35.51      0          0
MH4              37.20      0          35.52      0          0
311              37.60      0          35.78      0          0
277              37.60      0          35.21      0          0
276              37.60      0          35.21      0          0
310              36.90      0          35.68      0          0
MH1              36.90      0          35.11      0          0
309              36.90      0          35.68      0          0
308              36.90      0          35.68      0          0
305              36.90      0          35.58      0          0
307              36.90      0          35.43      0          0
MH2              36.90      0          35.43      0          0
304              36.70      0          35.58      0          0
303              36.90      0          35.48      0          0
302              36.90      0          35.38      0          0
301              37.00      0          35.38      0          0
300              36.90      0          35.28      0          0
299              36.90      0          35.18      0          0
298              36.90      0          35.18      0          0
297              36.90      0          35.08      0          0
296              36.90      0          34.98      0          0
295              36.60      0          34.88      0          0
294              36.60      0          34.88      0          0
293              36.60      0          34.88      0          0
292              36.60      0          34.78      0          0
291              36.60      0          34.78      0          0
290              36.60      0          34.78      0          0
289              36.20      0          34.78      0          0
288              36.20      0          34.68      0          0
287              39.00      0          34.67      0          0
72               36.20      0          34.66      0          0
73               37.90      0          34.93      0          0
68               35.90      0          35.00      0          0
67               36.10      0          35.25      0          0
66               36.30      0          35.45      0          0
SMH65            36.60      0          35.65      0          0
62               36.70      0          35.74      0          0
61               36.60      0          35.36      0          0
SMH59            36.90      0          35.99      0          0
89               37.00      0          36.12      0          0
57               37.00      0          35.63      0          0
56               57.00      0          35.73      0          0
SMH55            37.00      0          36.15      0          0
166              37.00      0          35.36      0          0
48               37.20      0          36.03      0          0
47               37.20      0          35.76      0          0
MH9              37.30      0          35.86      0          0
263              37.50      0          35.71      0          0
SMH190           37.20      0          36.02      0          0
PMH189           37.30      0          36.22      0          0
MH8              37.40      0          36.16      0          0
196              37.50      0          36.26      0          0
207              37.60      0          36.46      0          0
23               37.50      0          35.92      0          0
SMH22            37.40      0          36.86      0          0
SMH20            37.40      0          36.26      0          0
19               37.40      0          36.29      0          0
SMH217           37.60      0          36.23      0          0
SMH218           37.60      0          36.25      0          0
SMH219           37.60      0          36.45      0          0
18               37.50      0          35.71      0          0
SMH17            37.50      0          35.83      0          0
SMH16            37.50      0          36.13      0          0
21               37.40      0          36.06      0          0
O                36.20      0          0          0          0

[CONDUITS]
;;Name           From             To               Length     Roughness  InOffset   OutOffset  InitFlow   MaxFlow
;;-------------- ---------------- ---------------- ---------- ---------- ---------- ---------- ---------- ----------
MH5P             MH5              MH6              3.40       0.0210     36.25      36.20      0          0
MH6P             MH6              MH7              3.38       0.0210     36.20      36.18      0          0
MH7P             MH7              282              89.50      0.0210     36.18      36.18      0          0
282P             282              281              34.10      0.0210     36.18      36.17      0          0
281P             281              280              49.00      0.0210     36.17      36.17      0          0
280P             280              313              32.40      0.0210     36.17      36.17      0          0
313P             313              312              111.20     0.0210     36.17      34.80      0          0
MH4P             MH4              MH3              91.90      0.0210     35.11      35.10      0          0
MH3P             MH3              312              30.70      0.0210     35.10      35.10      0          0
312P             312              311              7.10       0.0210     34.80      34.80      0          0
311P             311              310              73.30      0.0210     34.80      34.70      0          0
276P             276              311              25.30      0.0210     34.80      34.80      0          0
277P             277              311              2.36       0.0210     34.80      34.80      0          0
310P             310              309              39.30      0.0210     34.70      34.70      0          0
MH1P             MH1              309              99.30      0.0210     34.70      34.70      0          0
309P             309              308              8.20       0.0210     34.70      34.70      0          0
308P             308              305              80.40      0.0210     34.70      34.60      0          0
305P             305              304              19.50      0.0210     34.60      34.60      0          0
304P             304              303              54.60      0.0210     34.60      34.50      0          0
303P             303              302              71.20      0.0210     34.50      34.40      0          0
302P             302              301              72.10      0.0210     34.40      34.40      0          0
301P             301              300              61.00      0.0210     34.40      34.30      0          0
300P             300              299              62.30      0.0210     34.30      34.20      0          0
MH2P             MH2              307              31.20      0.0210     35.10      35.10      0          0
307P             307              305              22.70      0.0210     35.10      35.10      0          0
299P             299              298              33.40      0.0210     34.20      34.20      0          0
298P             298              297              98.70      0.0210     34.20      34.10      0          0
297P             297              296              97.70      0.0210     34.10      34.00      0          0
296P             296              295              98.70      0.0210     34.00      33.90      0          0
295P             295              294              12.50      0.0210     33.90      33.90      0          0
294P             294              293              43.70      0.0210     33.90      33.90      0          0
293P             293              292              42.33      0.0210     33.90      33.80      0          0
292P             ?                ?                20.15      0.0210     33.80      33.80      0          0
291P             291              290              12.89      0.0210     33.80      33.80      0          0
290P             290              289              31.63      0.0210     33.80      33.80      0          0
289P             289              288              27.98      0.0210     33.80      33.70      0          0
288P             288              287              22.47      0.0210     33.70      33.70      0          0
287P             287              72               1.69       0.0210     33.69      33.69      0          0
SMH65P           SMH65            66               94.50      0.0210     34.50      34.30      0          0
66P              66               67               98.70      0.0210     34.30      34.10      0          0
67P              67               68               98.40      0.0210     34.10      33.90      0          0
68P              68               73               79.40      0.0210     33.85      33.78      0          0
73P              73               72               16.90      0.0210     33.78      33.70      0          0
48P              48               SMH55            98.00      0.0210     35.05      35.00      0          0
SMH55P           SMH55            89               19.10      0.0210     35.00      34.97      0          0
89P              89               SMH59            60.90      0.0210     34.97      34.84      0          0
SMH59P           SMH59            62               109.40     0.0210     34.84      34.59      0          0
62P              62               SMH65            140.20     0.0210     34.60      34.50      0          0
61P              61               62               21.30      0.0210     35.20      34.90      0          0
56P              56               57               24.40      0.0210     35.40      35.30      0          0
57P              57               89               31.70      0.0210     35.30      35.28      0          0
166P             166              SMH55            84.40      0.0210     35.20      35.00      0          0
207P             207              196              88.30      0.0210     35.80      35.60      0          0
196P             196              MH8              45.90      0.0210     35.60      35.50      0          0
MH8P             MH8              PMH189           30.20      0.0210     35.50      35.40      0          0
PMH189P          PMH189           SMH190           47.50      0.0210     35.40      35.20      0          0
SMH190P          SMH190           48               34.40      0.0210     35.20      35.10      0          0
MH9P             MH9              47               29.00      0.0210     35.20      35.10      0          0
47P              47               48               49.20      0.0210     35.10      35.06      0          0
263P             263              47               68.60      0.0210     35.30      35.10      0          0
SMH16P           SMH16            SMH17            85.40      0.0210     35.80      35.50      0          0
SMH17P           SMH17            18               79.30      0.0210     35.50      35.30      0          0
18P              18               23               83.00      0.0210     35.30      35.10      0          0
23P              23               48               93.10      0.0210     35.10      35.06      0          0
SMH219P          SMH219           SMH218           27.40      0.0210     36.20      36.00      0          0
SMH218P          SMH218           SMH217           23.60      0.0210     36.00      35.90      0          0
SMH2217P         SMH217           19               61.00      0.0210     35.90      35.80      0          0
19P              19               SMH20            82.30      0.0210     35.80      35.60      0          0
SMH22P           SMH22            23               34.40      0.0210     35.20      35.10      0          0
SMH20P           SMH20            21               72.70      0.0210     35.60      35.40      0          0
21P              21               SMH22            54.80      0.0210     35.40      35.20      0          0
278P             278              313              25.30      0.0210     36.17      36.17      0          0
OP               72               O                10.00      0.0210     33.68      33.68      0          0

[XSECTIONS]
;;Link           Shape        Geom1      Geom2      Geom3      Geom4      Barrels
;;-------------- ------------ ---------- ---------- ---------- ---------- ----------
MH5P             CIRCULAR     0.33       0          0          0          1
MH6P             CIRCULAR     0.33       0          0          0          1
MH7P             CIRCULAR     0.33       0          0          0          1
282P             CIRCULAR     0.33       0          0          0          1
281P             CIRCULAR     0.33       0          0          0          1
280P             CIRCULAR     0.33       0          0          0          1
313P             CIRCULAR     0.98       0          0          0          1
MH4P             CIRCULAR     0.41       0          0          0          1
MH3P             CIRCULAR     0.41       0          0          0          1
312P             CIRCULAR     0.98       0          0          0          1
311P             CIRCULAR     0.98       0          0          0          1
276P             CIRCULAR     0.41       0          0          0          1
277P             CIRCULAR     0.41       0          0          0          1
310P             CIRCULAR     0.98       0          0          0          1
MH1P             CIRCULAR     0.41       0          0          0          1
309P             CIRCULAR     0.98       0          0          0          1
308P             CIRCULAR     0.98       0          0          0          1
305P             CIRCULAR     0.98       0          0          0          1
304P             CIRCULAR     0.98       0          0          0          1
303P             CIRCULAR     0.98       0          0          0          1
302P             CIRCULAR     0.98       0          0          0          1
301P             CIRCULAR     0.98       0          0          0          1
300P             CIRCULAR     0.98       0          0          0          1
MH2P             CIRCULAR     0.33       0          0          0          1
307P             CIRCULAR     0.33       0          0          0          1
299P             CIRCULAR     0.98       0          0          0          1
298P             CIRCULAR     0.98       0          0          0          1
297P             CIRCULAR     0.98       0          0          0          1
296P             CIRCULAR     0.98       0          0          0          1
295P             CIRCULAR     0.98       0          0          0          1
294P             CIRCULAR     0.98       0          0          0          1
293P             CIRCULAR     0.98       0          0          0          1
292P             CIRCULAR     0.98       0          0          0          1
291P             CIRCULAR     0.98       0          0          0          1
290P             CIRCULAR     0.98       0          0          0          1
289P             CIRCULAR     0.98       0          0          0          1
288P             CIRCULAR     0.98       0          0          0          1
287P             CIRCULAR     0.98       0          0          0          1
SMH65P           CIRCULAR     1.15       0          0          0          1
66P              CIRCULAR     1.15       0          0          0          1
67P              CIRCULAR     1.15       0          0          0          1
68P              CIRCULAR     1.15       0          0          0          1
73P              CIRCULAR     1.15       0          0          0          1
48P              CIRCULAR     1.15       0          0          0          1
SMH55P           CIRCULAR     1.15       0          0          0          1
89P              CIRCULAR     1.15       0          0          0          1
SMH59P           CIRCULAR     1.15       0          0          0          1
62P              CIRCULAR     1.15       0          0          0          1
61P              CIRCULAR     0.16       0          0          0          1
56P              CIRCULAR     0.33       0          0          0          1
57P              CIRCULAR     0.33       0          0          0          1
166P             CIRCULAR     0.16       0          0          0          1
207P             CIRCULAR     0.66       0          0          0          1
196P             CIRCULAR     0.66       0          0          0          1
MH8P             CIRCULAR     0.82       0          0          0          1
PMH189P          CIRCULAR     0.82       0          0          0          1
SMH190P          CIRCULAR     0.82       0          0          0          1
MH9P             CIRCULAR     0.66       0          0          0          1
47P              CIRCULAR     0.66       0          0          0          1
263P             CIRCULAR     0.41       0          0          0          1
SMH16P           CIRCULAR     0.33       0          0          0          1
SMH17P           CIRCULAR     0.41       0          0          0          1
18P              CIRCULAR     0.49       0          0          0          1
23P              CIRCULAR     0.98       0          0          0          1
SMH219P          CIRCULAR     0.25       0          0          0          1
SMH218P          CIRCULAR     0.33       0          0          0          1
SMH2217P         CIRCULAR     0.49       0          0          0          1
19P              CIRCULAR     0.66       0          0          0          1
SMH22P           CIRCULAR     0.82       0          0          0          1
SMH20P           CIRCULAR     0.66       0          0          0          1
21P              CIRCULAR     0.66       0          0          0          1
278P             CIRCULAR     0.33       0          0          0          1
OP               CIRCULAR     2.40       0          0          0          1

[LOSSES]
;;Link           Inlet      Outlet     Average    Flap Gate
;;-------------- ---------- ---------- ---------- ----------
MH5P             0          0          0          NO
MH6P             0          0          0          NO
MH7P             0          0          0          NO
282P             0          0          0          NO
281P             0          0          0          NO
280P             0          0          0          NO
313P             0          0          0          NO
MH4P             0          0          0          NO
MH3P             0          0          0          NO
312P             0          0          0          NO
311P             0          0          0          NO
276P             0          0          0          NO
277P             0          0          0          NO
310P             0          0          0          NO
MH1P             0          0          0          NO
309P             0          0          0          NO
308P             0          0          0          NO
305P             0          0          0          NO
304P             0          0          0          NO
303P             0          0          0          NO
302P             0          0          0          NO
301P             0          0          0          NO
300P             0          0          0          NO
MH2P             0          0          0          NO
307P             0          0          0          NO
299P             0          0          0          NO
298P             0          0          0          NO
297P             0          0          0          NO
296P             0          0          0          NO
295P             0          0          0          NO
294P             0          0          0          NO
293P             0          0          0          NO
292P             0          0          0          NO
291P             0          0          0          NO
290P             0          0          0          NO
289P             0          0          0          NO
288P             0          0          0          NO
287P             0          0          0          NO
SMH65P           0          0          0          NO
66P              0          0          0          NO
67P              0          0          0          NO
68P              0          0          0          NO
73P              0          0          0          NO
48P              0          0          0          NO
SMH55P           0          0          0          NO
89P              0          0          0          NO
SMH59P           0          0          0          NO
62P              0          0          0          NO
61P              0          0          0          NO
56P              0          0          0          NO
57P              0          0          0          NO
166P             0          0          0          NO
207P             0          0          0          NO
196P             0          0          0          NO
MH8P             0          0          0          NO
PMH189P          0          0          0          NO
SMH190P          0          0          0          NO
MH9P             0          0          0          NO
47P              0          0          0          NO
263P             0          0          0          NO
SMH16P           0          0          0          NO
SMH17P           0          0          0          NO
18P              0          0          0          NO
23P              0          0          0          NO
SMH219P          0          0          0          NO
SMH218P          0          0          0          NO
SMH2217P         0          0          0          NO
19P              0          0          0          NO
SMH22P           0          0          0          NO
SMH20P           0          0          0          NO
21P              0          0          0          NO
278P             0          0          0          NO
OP               0          0          0          NO

[COORDINATES]
;;Node           X-Coord            Y-Coord
;;-------------- ------------------ ------------------
MH5              112.16             68.44             
MH6              120.00             68.64             
MH7              119.26             84.69             
282              102.70             84.69             
281              88.98              84.66             
280              74.31              84.44             
313              61.07              84.63             
278              46.86              84.81             
312              61.06              56.40             
MH3              70.40              56.40             
MH4              81.44              56.40             
311              51.14              56.42             
277              51.14              69.53             
276              51.12              37.02             
310              37.36              56.43             
MH1              26.74              35.81             
309              26.74              56.43             
308              26.76              71.36             
305              26.99              86.65             
307              26.99              99.59             
MH2              36.92              99.59             
304              15.38              86.42             
303              4.99               86.20             
302              -4.72              86.40             
301              -15.13             86.61             
300              -25.56             86.61             
299              -36.65             86.80             
298              -36.42             105.47            
297              -36.90             120.37            
296              -36.42             133.89            
295              -36.42             148.21            
294              -36.42             163.50            
293              -36.42             178.79            
292              -48.25             188.72            
291              -61.03             200.09            
290              -53.46             211.46            
289              -46.36             220.09            
288              -37.84             229.50            
287              -29.32             238.12            
72               -10.40             238.90            
73               -1.98              220.32            
68               -16.34             212.66            
67               -2.35              199.51            
66               12.19              187.00            
SMH65            23.25              177.23            
62               32.47              167.94            
61               27.95              157.02            
SMH59            45.91              167.94            
89               54.90              167.94            
57               54.66              155.02            
56               54.68              138.27            
SMH55            67.30              167.94            
166              67.30              154.26            
48               80.68              167.94            
47               80.67              179.40            
MH9              80.68              196.69            
263              92.67              179.38            
SMH190           80.68              149.57            
PMH189           80.95              132.68            
MH8              81.39              119.01            
196              81.39              104.50            
207              81.10              91.65             
23               95.42              167.74            
SMH22            95.41              155.28            
SMH20            95.37              130.52            
19               94.90              118.82            
SMH217           95.39              102.41            
SMH218           106.43             102.61            
SMH219           116.68             102.44            
18               109.35             167.50            
SMH17            109.58             180.75            
SMH16            109.83             195.11            
21               95.41              142.25            
O                -4.06              248.28            

[MAP]
DIMENSIONS -61.03 35.81 120.00 248.28
Units      None

[REPORT]
INPUT            YES
SUBCATCHMENTS    ALL
NODES            ALL
LINKS            ALL



