;; SWMM5 .inp converted from XPSWMM .xp file
;; Generated by XPSWMM Card Reader
;; Source format: XP_CARD | Original title: Boulder SMP

[TITLE]
;;Project Title/Notes
Boulder SMP

[OPTIONS]
FLOW_UNITS           CFS
INFILTRATION         HORTON
FLOW_ROUTING         DYNWAVE
LINK_OFFSETS         DEPTH
MIN_SLOPE            0.0
ALLOW_PONDING        NO
SKIP_STEADY_STATE    NO
ROUTING_STEP         00:00:10
VARIABLE_STEP        0.75
INERTIAL_DAMPING     PARTIAL
NORMAL_FLOW_LIMITED  BOTH

[JUNCTIONS]
;;Name           Elev       MaxDepth   InitDepth  SurDepth   Aponded
;;-------------- ---------- ---------- ---------- ---------- ----------
0                5195.32    0          0          0          0
0                5234.07    0          0          0          0
0                5259.35    0          0          0          0
0                5189.59    0          0          0          0
0                5202.25    0          0          0          0
0                5135.63    0          0          0          0
0                5186.76    0          0          0          0
0                5242.75    0          0          0          0
0                5213.24    0          0          0          0
0                5400.73    0          0          0          0
0                5209.71    0          0          0          0
0                5255.17    0          0          0          0
0                5177.07    0          0          0          0
0                5600.84    0          0          0          0
0                5555.80    0          0          0          0
0                5544.61    0          0          0          0
0                5329.57    0          0          0          0
0                5329.05    0          0          0          0
0                5332.29    0          0          0          0
0                5326.20    0          0          0          0
0                5323.72    0          0          0          0
0                5283.25    0          0          0          0
0                5282.31    0          0          0          0
0                5270.74    0          0          0          0
0                5283.24    0          0          0          0
0                5494.52    0          0          0          0
0                5438.47    0          0          0          0
0                5587.71    0          0          0          0
0                5473.44    0          0          0          0
0                5465.54    0          0          0          0
0                5440.03    0          0          0          0
0                5343.63    0          0          0          0
0                5324.73    0          0          0          0
0                5309.84    0          0          0          0
0                5306.40    0          0          0          0
0                5603.86    0          0          0          0
0                5460.70    0          0          0          0
0                5401.87    0          0          0          0
0                5377.38    0          0          0          0
0                5438.61    0          0          0          0
0                5338.37    0          0          0          0
0                5326.29    0          0          0          0
0                5322.69    0          0          0          0
0                5326.76    0          0          0          0
0                5314.01    0          0          0          0
0                5317.88    0          0          0          0
0                5299.26    0          0          0          0
0                5297.33    0          0          0          0
0                5391.70    0          0          0          0
0                5385.83    0          0          0          0
0                5356.94    0          0          0          0
0                5313.86    0          0          0          0
0                5303.79    0          0          0          0
0                5300.01    0          0          0          0
0                5291.32    0          0          0          0
0                5292.16    0          0          0          0
0                5293.01    0          0          0          0
0                5263.08    0          0          0          0
0                5360.36    0          0          0          0
0                5361.53    0          0          0          0
0                5593.84    0          0          0          0
0                5273.66    0          0          0          0
0                5366.95    0          0          0          0
0                5295.02    0          0          0          0
0                5356.06    0          0          0          0
0                5293.89    0          0          0          0
0                5293.36    0          0          0          0
0                5290.93    0          0          0          0
0                5361.42    0          0          0          0
0                5551.18    0          0          0          0
0                5556.44    0          0          0          0
0                5528.57    0          0          0          0
0                5533.33    0          0          0          0
0                5273.79    0          0          0          0
0                5343.10    0          0          0          0
0                5392.72    0          0          0          0
0                5284.53    0          0          0          0
0                5280.14    0          0          0          0
0                5333.05    0          0          0          0
0                5290.70    0          0          0          0
0                5292.06    0          0          0          0
0                5289.90    0          0          0          0
0                5287.58    0          0          0          0
0                5380.31    0          0          0          0
0                5382.31    0          0          0          0
0                5421.69    0          0          0          0
0                5256.28    0          0          0          0
0                5450.16    0          0          0          0
0                5262.76    0          0          0          0
0                5235.43    0          0          0          0
0                5227.60    0          0          0          0
0                5244.61    0          0          0          0
0                5192.54    0          0          0          0
0                5192.66    0          0          0          0
0                5264.78    0          0          0          0
0                5250.40    0          0          0          0
0                5246.97    0          0          0          0
0                5249.06    0          0          0          0
0                5274.92    0          0          0          0
0                5169.23    0          0          0          0
0                5159.44    0          0          0          0
0                5200.75    0          0          0          0
0                5204.45    0          0          0          0
0                5173.24    0          0          0          0
0                5175.73    0          0          0          0
0                5135.22    0          0          0          0
0                5159.34    0          0          0          0
0                5163.39    0          0          0          0
0                5157.34    0          0          0          0
0                5157.71    0          0          0          0
0                5344.20    0          0          0          0
0                5366.46    0          0          0          0
0                5364.93    0          0          0          0
0                5350.78    0          0          0          0
0                5336.50    0          0          0          0
0                5417.01    0          0          0          0
0                5334.25    0          0          0          0
0                5287.76    0          0          0          0
0                5259.83    0          0          0          0
0                5321.48    0          0          0          0
0                5705.72    0          0          0          0
0                5253.02    0          0          0          0
0                5256.36    0          0          0          0
0                5263.70    0          0          0          0
0                5313.41    0          0          0          0
0                5319.47    0          0          0          0
0                5152.99    0          0          0          0
0                5153.39    0          0          0          0
0                5156.27    0          0          0          0
0                5149.45    0          0          0          0
0                5241.51    0          0          0          0
0                5235.39    0          0          0          0
0                5346.46    0          0          0          0
0                5343.39    0          0          0          0
0                5346.19    0          0          0          0
0                5340.91    0          0          0          0
0                5319.34    0          0          0          0
0                5291.28    0          0          0          0
0                5413.46    0          0          0          0
0                5506.14    0          0          0          0
0                5508.40    0          0          0          0
0                5420.07    0          0          0          0
0                5572.20    0          0          0          0
0                5616.65    0          0          0          0
0                5417.75    0          0          0          0
0                5449.30    0          0          0          0
0                5506.83    0          0          0          0
0                5587.83    0          0          0          0
0                5454.37    0          0          0          0
0                5421.20    0          0          0          0
0                5396.11    0          0          0          0
0                5528.13    0          0          0          0
0                5558.08    0          0          0          0
0                5312.84    0          0          0          0
0                5259.98    0          0          0          0
0                5379.52    0          0          0          0
0                5377.76    0          0          0          0
0                5241.21    0          0          0          0
0                5244.82    0          0          0          0
0                5224.50    0          0          0          0
0                5227.01    0          0          0          0
0                5226.76    0          0          0          0
0                5197.17    0          0          0          0
0                5240.15    0          0          0          0
0                5211.85    0          0          0          0
0                5222.20    0          0          0          0
0                5208.06    0          0          0          0
0                5236.00    0          0          0          0
0                5258.51    0          0          0          0
0                5401.88    0          0          0          0
0                5627.25    0          0          0          0
0                5442.35    0          0          0          0
0                5503.39    0          0          0          0
0                5629.05    0          0          0          0
0                5447.27    0          0          0          0
0                5453.07    0          0          0          0
0                5910.82    0          0          0          0
0                5479.42    0          0          0          0
0                5364.84    0          0          0          0
0                5397.13    0          0          0          0
0                5450.04    0          0          0          0
0                5462.76    0          0          0          0
0                5452.84    0          0          0          0
0                5313.58    0          0          0          0
0                5310.01    0          0          0          0
0                5299.31    0          0          0          0
0                5347.53    0          0          0          0
0                5308.25    0          0          0          0
0                5289.21    0          0          0          0
0                5282.01    0          0          0          0
0                5241.95    0          0          0          0
0                5264.91    0          0          0          0
0                5272.43    0          0          0          0
0                5347.41    0          0          0          0
0                5298.18    0          0          0          0
0                5558.89    0          0          0          0
0                5308.13    0          0          0          0
0                5282.19    0          0          0          0
0                5304.06    0          0          0          0
0                5337.06    0          0          0          0
0                5323.27    0          0          0          0
0                5349.95    0          0          0          0
0                5274.40    0          0          0          0
0                5281.73    0          0          0          0
0                5603.82    0          0          0          0
0                5294.00    0          0          0          0
0                5425.86    0          0          0          0
0                5423.99    0          0          0          0
0                5313.81    0          0          0          0
0                5318.83    0          0          0          0
0                5328.46    0          0          0          0
0                5306.10    0          0          0          0
0                5307.00    0          0          0          0
0                5305.90    0          0          0          0
0                5308.11    0          0          0          0
0                5311.95    0          0          0          0
0                5407.28    0          0          0          0
0                5601.95    0          0          0          0
0                5583.27    0          0          0          0
0                5450.63    0          0          0          0
0                5304.59    0          0          0          0
0                5323.60    0          0          0          0
0                5400.94    0          0          0          0
0                5397.52    0          0          0          0
0                5350.38    0          0          0          0
0                5359.83    0          0          0          0
0                5304.44    0          0          0          0
0                5296.51    0          0          0          0
0                5326.65    0          0          0          0
0                5325.94    0          0          0          0
0                5340.68    0          0          0          0
0                5589.51    0          0          0          0
0                5614.19    0          0          0          0
0                5280.01    0          0          0          0
0                5206.54    0          0          0          0
0                5447.65    0          0          0          0
0                5249.68    0          0          0          0
0                5286.48    0          0          0          0
0                5361.79    0          0          0          0
0                5334.23    0          0          0          0
0                5260.20    0          0          0          0
0                5353.57    0          0          0          0
0                5354.18    0          0          0          0
0                5332.08    0          0          0          0
0                5352.89    0          0          0          0
0                5339.49    0          0          0          0
0                5343.61    0          0          0          0
0                5348.08    0          0          0          0
0                5504.08    0          0          0          0
0                5485.29    0          0          0          0
0                5563.44    0          0          0          0
0                5440.62    0          0          0          0
0                5496.67    0          0          0          0
0                5473.79    0          0          0          0
0                5285.55    0          0          0          0
0                5291.42    0          0          0          0
0                5272.40    0          0          0          0
0                5273.60    0          0          0          0
0                5310.48    0          0          0          0
0                5350.33    0          0          0          0
0                5320.37    0          0          0          0
0                5330.98    0          0          0          0
0                5322.49    0          0          0          0
0                5320.35    0          0          0          0
0                5322.57    0          0          0          0
0                5271.89    0          0          0          0
0                5440.21    0          0          0          0
0                5464.13    0          0          0          0
0                5448.65    0          0          0          0
0                5439.31    0          0          0          0
0                5477.91    0          0          0          0
0                5631.83    0          0          0          0
0                5630.32    0          0          0          0
0                5302.60    0          0          0          0
0                5289.93    0          0          0          0
0                5574.98    0          0          0          0
0                5270.22    0          0          0          0
0                5231.27    0          0          0          0
0                5555.53    0          0          0          0
0                5565.62    0          0          0          0
0                5134.95    0          0          0          0
0                5265.82    0          0          0          0
0                5311.62    0          0          0          0
0                5303.64    0          0          0          0
0                5262.56    0          0          0          0
0                5281.22    0          0          0          0
0                5291.09    0          0          0          0
0                5648.66    0          0          0          0
0                5679.23    0          0          0          0
0                5600.98    0          0          0          0
0                5535.16    0          0          0          0
0                5308.31    0          0          0          0
0                5288.43    0          0          0          0
0                5337.50    0          0          0          0
0                5450.29    0          0          0          0
0                5133.54    0          0          0          0
0                5139.05    0          0          0          0
0                5489.52    0          0          0          0
0                5461.74    0          0          0          0
0                5393.55    0          0          0          0
0                5391.72    0          0          0          0
0                5395.18    0          0          0          0
0                5422.06    0          0          0          0
0                5421.52    0          0          0          0
0                5358.83    0          0          0          0
0                5329.84    0          0          0          0
0                5378.50    0          0          0          0
0                5267.24    0          0          0          0
0                5287.76    0          0          0          0
0                5284.16    0          0          0          0
0                5428.28    0          0          0          0
0                5428.38    0          0          0          0
0                5351.73    0          0          0          0
0                5385.44    0          0          0          0
0                5307.06    0          0          0          0
0                5523.00    0          0          0          0
0                5528.95    0          0          0          0
0                5375.80    0          0          0          0
0                5310.04    0          0          0          0
0                5311.26    0          0          0          0
0                5311.59    0          0          0          0
0                5369.09    0          0          0          0
0                5502.51    0          0          0          0
0                5469.23    0          0          0          0
0                5389.25    0          0          0          0
0                5371.36    0          0          0          0
0                5300.82    0          0          0          0
0                5299.33    0          0          0          0
0                5297.62    0          0          0          0
0                5381.09    0          0          0          0
0                5374.94    0          0          0          0
0                5359.48    0          0          0          0
0                5354.62    0          0          0          0
0                5355.33    0          0          0          0
0                5480.74    0          0          0          0
0                5510.41    0          0          0          0
0                5455.00    0          0          0          0
0                5464.60    0          0          0          0
0                5361.17    0          0          0          0
0                5303.40    0          0          0          0
0                5297.89    0          0          0          0
0                5306.26    0          0          0          0
0                5350.26    0          0          0          0
0                5379.94    0          0          0          0
0                5389.46    0          0          0          0
0                5382.63    0          0          0          0
0                5446.72    0          0          0          0
0                5429.09    0          0          0          0
0                5422.77    0          0          0          0
0                5415.78    0          0          0          0
0                5400.67    0          0          0          0
0                5353.85    0          0          0          0
0                5365.70    0          0          0          0
0                5360.01    0          0          0          0
0                5291.49    0          0          0          0
0                5283.11    0          0          0          0
0                5399.95    0          0          0          0
0                5448.95    0          0          0          0
0                5418.33    0          0          0          0
0                5437.84    0          0          0          0
0                5461.34    0          0          0          0
0                5443.58    0          0          0          0
0                5441.64    0          0          0          0
0                5284.75    0          0          0          0
0                5271.74    0          0          0          0
0                5303.81    0          0          0          0
0                5288.94    0          0          0          0
0                5395.28    0          0          0          0
0                5360.28    0          0          0          0
0                5350.63    0          0          0          0
0                5354.62    0          0          0          0
0                5357.43    0          0          0          0
0                5356.50    0          0          0          0
0                5341.31    0          0          0          0
0                5288.79    0          0          0          0
0                5286.20    0          0          0          0
0                5328.47    0          0          0          0
0                5320.44    0          0          0          0
0                5432.83    0          0          0          0
0                5585.37    0          0          0          0
0                5566.23    0          0          0          0
0                5326.85    0          0          0          0
0                5367.48    0          0          0          0
0                5380.89    0          0          0          0
0                5420.37    0          0          0          0
0                5595.96    0          0          0          0
0                5263.73    0          0          0          0
0                5318.64    0          0          0          0
0                5314.89    0          0          0          0
0                5332.12    0          0          0          0
0                5321.85    0          0          0          0
0                5325.18    0          0          0          0
0                5333.04    0          0          0          0
0                5320.16    0          0          0          0
0                5379.79    0          0          0          0
0                5345.63    0          0          0          0
0                5333.82    0          0          0          0
0                5439.30    0          0          0          0
0                5433.88    0          0          0          0
0                5273.99    0          0          0          0
0                5430.73    0          0          0          0
0                5474.17    0          0          0          0
0                5571.84    0          0          0          0
0                5558.90    0          0          0          0
0                5566.44    0          0          0          0
0                5540.09    0          0          0          0
0                5260.63    0          0          0          0
0                5331.09    0          0          0          0
0                5648.49    0          0          0          0
0                5549.33    0          0          0          0
0                5530.70    0          0          0          0
0                5566.69    0          0          0          0
0                5568.04    0          0          0          0
0                5569.93    0          0          0          0
0                5521.62    0          0          0          0
0                5344.00    0          0          0          0
0                5274.20    0          0          0          0
0                5330.19    0          0          0          0
0                5256.15    0          0          0          0
0                5493.31    0          0          0          0
0                5501.40    0          0          0          0
0                5574.36    0          0          0          0
0                5533.72    0          0          0          0
0                5582.10    0          0          0          0
0                5335.80    0          0          0          0
0                5326.57    0          0          0          0
0                5342.75    0          0          0          0
0                5325.14    0          0          0          0
0                5333.29    0          0          0          0
0                5310.25    0          0          0          0
0                5326.06    0          0          0          0
0                5326.04    0          0          0          0
0                5328.02    0          0          0          0
0                5328.15    0          0          0          0
0                5288.02    0          0          0          0
0                5269.09    0          0          0          0
0                5267.67    0          0          0          0
0                5255.01    0          0          0          0
0                5605.87    0          0          0          0
0                5519.45    0          0          0          0
0                5501.00    0          0          0          0
0                5516.01    0          0          0          0
0                5507.93    0          0          0          0
0                5262.43    0          0          0          0
0                5278.21    0          0          0          0
0                5310.81    0          0          0          0
0                5343.71    0          0          0          0
0                5297.90    0          0          0          0
0                5422.89    0          0          0          0
0                5392.85    0          0          0          0
0                5377.92    0          0          0          0
0                5163.59    0          0          0          0
0                5273.62    0          0          0          0
0                5364.83    0          0          0          0
0                5312.08    0          0          0          0
0                5265.26    0          0          0          0
0                5237.51    0          0          0          0
0                5222.52    0          0          0          0
0                5178.46    0          0          0          0
0                5176.02    0          0          0          0
0                5175.97    0          0          0          0
0                5246.17    0          0          0          0
0                5202.97    0          0          0          0
0                5149.28    0          0          0          0
0                5149.29    0          0          0          0
0                5153.64    0          0          0          0