;; SWMM5 .inp converted from XPSWMM .xp file
;; Generated by XPSWMM Card Reader
;; Source format: XP_CARD | Original title: Interceptor Model - CSO002 AND 003 SEPARATED, JUDAY CREEK LS

[TITLE]
;;Project Title/Notes
Interceptor Model - CSO002 AND 003 SEPARATED, JUDAY CREEK LS

[OPTIONS]
FLOW_UNITS           CFS
INFILTRATION         HORTON
FLOW_ROUTING         DYNWAVE
LINK_OFFSETS         DEPTH
MIN_SLOPE            0.0
ALLOW_PONDING        NO
SKIP_STEADY_STATE    NO
ROUTING_STEP         00:00:10
VARIABLE_STEP        0.75
INERTIAL_DAMPING     PARTIAL
NORMAL_FLOW_LIMITED  BOTH
MAX_TRIALS           50
HEAD_TOLERANCE       0.0033

[JUNCTIONS]
;;Name           Elev       MaxDepth   InitDepth  SurDepth   Aponded
;;-------------- ---------- ---------- ---------- ---------- ----------
I021186N         715.00     0          0          0          0
I021185N         715.00     0          0          0          0
I021177N         716.00     0          0          0          0
I021175N         716.00     0          0          0          0
I021174N         715.00     0          0          0          0
I021172N         715.00     0          0          0          0
I021170N         716.00     0          0          0          0
I003166N         705.19     0          0          0          0
IWTP161N         715.00     0          0          0          0
IWTP161AN        695.00     0          0          0          0
WWTP             695.00     0          0          0          0
IWTP000N         696.00     0          0          0          0
IWTP001N         698.00     0          0          0          0
IWTPOO3N         697.00     0          0          0          0
IWTP004N         702.00     0          0          0          0
I009006N         694.00     0          0          0          0
I009008N         696.00     0          0          0          0
I009009N         697.00     0          0          0          0
I010011N         701.00     0          0          0          0
T010005N         700.00     0          0          0          0
I010014N         710.00     0          0          0          0
I010015N         706.00     0          0          0          0
I010017N         709.00     0          0          0          0
I010018N         710.00     0          0          0          0
I014021N         707.00     0          0          0          0
I014023N         713.00     0          0          0          0
I014025N         715.00     0          0          0          0
I014027N         720.00     0          0          0          0
I014028N         722.00     0          0          0          0
I014029N         723.00     0          0          0          0
I014031N         722.00     0          0          0          0
I014033N         705.00     0          0          0          0
I014034N         705.00     0          0          0          0
I014035N         712.00     0          0          0          0
I014036N         712.00     0          0          0          0
I014037N         712.00     0          0          0          0
CSO018OF         713.12     0          0          0          0
CSO014OF1        699.54     0          0          0          0
CSO002OF         699.17     0          0          0          0
CSO18A           727.00     0          0          0          0
CSO18B           726.00     0          0          0          0
CSO18C           726.00     0          0          0          0
CSO18D           723.00     0          0          0          0
CSO18E           723.00     0          0          0          0
I18E045N         724.00     0          0          0          0
I18E046N         726.00     0          0          0          0
I18E047N         723.00     0          0          0          0
I18E049N         723.00     0          0          0          0
I18E052N         721.00     0          0          0          0
I18E054N         722.00     0          0          0          0
I18E062N         726.00     0          0          0          0
I18E064N         727.00     0          0          0          0
I18E066N         728.00     0          0          0          0
I18E067N         727.00     0          0          0          0
I18E068N         730.00     0          0          0          0
I18E071N         729.00     0          0          0          0
I18E072N         729.00     0          0          0          0
I18E074N         731.00     0          0          0          0
I18E075N         730.00     0          0          0          0
I18E078          730.00     0          0          0          0
I009217N         705.00     0          0          0          0
I009218N         698.00     0          0          0          0
I009216N         704.00     0          0          0          0
I009212N         716.00     0          0          0          0
I009208N         719.00     0          0          0          0
I009206N         721.00     0          0          0          0
I009202N         722.00     0          0          0          0
CSO0120F         715.09     0          0          0          0
I012088N         717.00     0          0          0          0
I12BO91N         722.00     0          0          0          0
CSO012AOF        714.65     0          0          0          0
I12B098N         723.00     0          0          0          0
I12B099N         724.00     0          0          0          0
I12B100N         722.00     0          0          0          0
I12B101N         723.00     0          0          0          0
I12B102N         724.00     0          0          0          0
I12B104N         725.00     0          0          0          0
I010187N         698.00     0          0          0          0
I010010N         696.00     0          0          0          0
CSO011OF         697.48     0          0          0          0
I010190N         707.00     0          0          0          0
CSO019OF         710.69     0          0          0          0
I010132N         712.00     0          0          0          0
I010133N         714.00     0          0          0          0
I010134N         720.00     0          0          0          0
I010135N         721.00     0          0          0          0
CSO016OF         722.82     0          0          0          0
I014020N         700.00     0          0          0          0
I015150N         703.00     0          0          0          0
CSO017           702.00     0          0          0          0
CSO015OFN        699.31     0          0          0          0
IWTP220N         692.00     0          0          0          0
IWTP221N         685.00     0          0          0          0
I004111N         716.00     0          0          0          0
I004112N         717.00     0          0          0          0
CSO004OF         711.33     0          0          0          0
I004110AN        716.00     0          0          0          0
I004110BN        716.00     0          0          0          0
CSO006OF         716.00     0          0          0          0
I004113N         716.00     0          0          0          0
I004114N         715.00     0          0          0          0
I004115N         717.00     0          0          0          0
I004116N         716.00     0          0          0          0
I004117N         718.00     0          0          0          0
CSO008OF         719.00     0          0          0          0
CSO007OF         714.04     0          0          0          0
CSO005OF         714.00     0          0          0          0
T003005N         710.31     0          0          0          0
T003010N         710.31     0          0          0          0
CSO003OFN        710.31     0          0          0          0
CSO004OFN        711.33     0          0          0          0
CSO009OFN        692.79     0          0          0          0
CSO009OF         692.79     0          0          0          0
CSO011OFN        697.48     0          0          0          0
T011020N         740.00     0          0          0          0
T011015N         735.00     0          0          0          0
T011198N         720.00     0          0          0          0
CSO0120FN        715.09     0          0          0          0
CSO012AOFN       714.65     0          0          0          0
T012A005N        714.65     0          0          0          0
T012010N         717.00     0          0          0          0
T012015N         721.01     0          0          0          0
CSO012BOFN       721.01     0          0          0          0
CSO012BOF        721.01     0          0          0          0
T013104N         725.00     0          0          0          0
CSO016OFN        722.82     0          0          0          0
T016137N         722.82     0          0          0          0
CSO018OFN        713.12     0          0          0          0
CSO020OFN        730.24     0          0          0          0
CSO020OF         730.24     0          0          0          0
CSO019OFN        710.69     0          0          0          0
CSO019N          710.69     0          0          0          0
CSO002OFN        699.17     0          0          0          0
409              721.82     0          0          0          0
T002005N         699.00     0          0          0          0
T002010N         699.00     0          0          0          0
I18E056N         727.00     0          0          0          0
CSO003OF         710.30     0          0          0          0
CSO009N          692.79     0          0          0          0
CSO011N          697.00     0          0          0          0
CSO020N          730.00     0          0          0          0
CSO006OFN        716.00     0          0          0          0
CSO014OF2        700.00     0          0          0          0
T021005N         715.00     0          0          0          0
T005005N         716.00     0          0          0          0
T007126N         715.00     0          0          0          0
T008005N         730.00     0          0          0          0
T006005N         715.00     0          0          0          0
T009005N         715.00     0          0          0          0
T019195N         716.00     0          0          0          0
T015005N         710.00     0          0          0          0
T014015N         722.00     0          0          0          0
T014020N         725.00     0          0          0          0
T020005N         730.00     0          0          0          0
I021169N         711.00     0          0          0          0
I003164N         710.00     0          0          0          0
CSO013OFN        725.00     0          0          0          0
CSO013OF         725.00     0          0          0          0
CSO015OF         699.31     0          0          0          0
POUT             695.00     0          0          0          0
WWTPN            695.00     0          0          0          0
03-GWTRN         740.00     0          0          0          0
11-1GWTRN        730.00     0          0          0          0
11-2GWTRN        750.00     0          0          0          0
I021165N         707.00     0          0          0          0
I010012N         698.10     0          0          0          0
19-GWTR          730.00     0          0          0          0
T003009N         710.31     0          0          0          0
T003008N         710.31     0          0          0          0
T011014N         735.00     0          0          0          0
T011013N         735.00     0          0          0          0
T011012N         735.00     0          0          0          0
T011011N         735.00     0          0          0          0
T011010N         735.00     0          0          0          0
T011009N         735.00     0          0          0          0
T011008N         735.00     0          0          0          0
T011007N         735.00     0          0          0          0
T002010AN        699.00     0          0          0          0
T002010BN        699.00     0          0          0          0
T002010CN        699.00     0          0          0          0
T002010DN        699.00     0          0          0          0
T002010EN        699.00     0          0          0          0
T002010FN        699.00     0          0          0          0

[STORAGE]
;;Name           Elev       MaxDepth   InitDepth  Shape      Curve/Params
;;-------------- ---------- ---------- ---------- ---------- ----------
CSO002           699.00     0          0          FUNCTIONAL 13.00 0          0
CSO021           705.19     0          0          FUNCTIONAL 13.00 0          0
CSO003N          710.00     0          0          FUNCTIONAL 32.00 0          0
CSO009           692.79     -2.79      0          FUNCTIONAL 13.00 0          0
CSO010           696.00     0          0          FUNCTIONAL 63.00 0          0
CSO014           701.00     -1.00      0          FUNCTIONAL 13.00 0          0
I014019N         698.00     0          0          FUNCTIONAL 13.00 0          0
CSO018           713.12     -0.12      0          FUNCTIONAL 13.00 0          0
CSO020           730.00     0          0          FUNCTIONAL 13.00 0          0
I009220N         695.00     0          0          FUNCTIONAL 13.00 0          0
I009210N         717.00     0          0          FUNCTIONAL 13.00 0          0
CSO012           715.09     -0.09      0          FUNCTIONAL 13.00 0          0
CSO012A          714.65     -0.65      0          FUNCTIONAL 30.00 0          0
CSO12B           721.00     0          0          FUNCTIONAL 60.00 0          0
I12B093N         722.00     0          0          FUNCTIONAL 13.00 0          0
I12B097N         721.00     0          0          FUNCTIONAL 13.00 0          0
CSO013           725.00     0          0          FUNCTIONAL 25.00 0          0
CSO011           697.00     0          0          FUNCTIONAL 16.00 0          0
CSO019           710.69     -0.69      0          FUNCTIONAL 13.00 0          0
CSO015N          699.00     0          0          FUNCTIONAL 13.00 0          0
CSO006           716.00     0          0          FUNCTIONAL 13.00 0          0
CSO008           719.00     0          0          FUNCTIONAL 13.00 0          0
CSO007           714.04     -0.04      0          FUNCTIONAL 50.00 0          0
CSO005           714.06     -0.06      0          FUNCTIONAL 13.00 0          0
CSO003           710.31     -0.31      0          FUNCTIONAL 42.00 0          0
CSO004           711.33     -0.33      0          FUNCTIONAL 26.00 0          0
CSO015           699.31     -0.31      0          FUNCTIONAL 13.00 0          0
CSO016           722.82     -0.82      0          FUNCTIONAL 26.00 0          0
CSO004N          711.00     0          0          FUNCTIONAL 26.00 0          0
CSO014N          700.00     0          0          FUNCTIONAL 13.00 0          0
CSO016N          722.00     0          0          FUNCTIONAL 13.00 0          0
CSO018N          713.00     0          0          FUNCTIONAL 13.00 0          0
03-GWTR          724.00     0          0          FUNCTIONAL 0 0          0
11-1GWTR         730.00     0          0          FUNCTIONAL 0 0          0
11-2GWTR         750.00     0          0          FUNCTIONAL 0 0          0
19-GWTRN         720.00     0          0          FUNCTIONAL 0 0          0

[CONDUITS]
;;Name           From             To               Length     Roughness  InOffset   OutOffset  InitFlow   MaxFlow
;;-------------- ---------------- ---------------- ---------- ---------- ---------- ---------- ---------- ----------
I021CO2C         409              I021186N         500.00     0.0140     687.32     701.77     0          0
I021186C         I021186N         I021185N         560.00     0.0140     701.77     701.47     0          0
I021185C         I021185N         I021177N         558.00     0.0140     701.47     700.30     0          0
I021177C         I021177N         I021175N         599.00     0.0140     700.30     699.16     0          0
I021175C         I021175N         I021174N         337.00     0.0140     699.16     698.37     0          0
I021174C         I021174N         I021172N         773.00     0.0140     698.37     696.93     0          0
I021172C         I021172N         I021170N         632.00     0.0140     696.93     695.38     0          0
I021169C         I021169N         CSO021           475.00     0.0140     694.94     692.06     0          0
I02102AC         CSO021           I003166N         300.00     0.0054     691.89     690.58     0          0
I003166C         I003166N         I021165N         350.00     0.0140     690.58     690.52     0          0
IWTPC03C         CSO003N          IWTP161N         550.00     0.0140     689.53     688.54     0          0
IWTP161C         IWTP161N         IWTP161AN        585.00     0.0140     688.54     687.55     0          0
WWTPC            IWTP161AN        WWTP             300.00     0.0140     679.13     678.83     0          0
IWTPC09C         CSO009N          IWTP004N         366.00     0.0140     680.49     680.19     0          0
IWTP004C         IWTP004N         IWTPOO3N         602.00     0.0140     680.19     679.69     0          0
IWTP003C         IWTPOO3N         IWTP001N         572.00     0.0140     679.69     679.21     0          0
IWTP001C         IWTP001N         IWTP000N         394.00     0.0140     679.21     678.66     0          0
IWTP000C         IWTP000N         IWTP161AN        300.00     0.0090     679.21     679.13     0          0
I009006C         I009006N         CSO009           708.00     0.0160     681.86     681.21     0          0
I009009C         I009009N         I009008N         225.00     0.0160     682.96     682.29     0          0
MH008#1          MH008#2          I009006N         771.00     0.0140     682.29     681.86     0          0
I010014C         I010014N         I010012N         438.00     0.0160     687.07     686.57     0          0
I010012C         I010012N         I010011N         480.00     0.0160     686.57     685.90     0          0
I010018C         I010018N         I010017N         366.00     0.0160     688.43     688.17     0          0
I010017C         I010017N         I010015N         763.00     0.0160     688.17     687.39     0          0
I010015C         I010015N         I010014N         316.00     0.0160     687.39     687.07     0          0
I014019C         I014019N         CSO014           423.00     0.0160     690.66     689.94     0          0
I014028C         I014028N         I014027N         283.00     0.0160     694.37     694.00     0          0
I014027C         I014027N         I014025N         567.00     0.0160     694.00     693.21     0          0
I014025C         I014025N         I014023N         603.00     0.0160     693.21     692.35     0          0
I014023C         I014023N         I014021N         617.00     0.0160     692.35     691.49     0          0
I014021C         I014021N         I014019N         266.00     0.0160     691.49     690.66     0          0
I014034C         I014034N         I014033N         575.00     0.0160     696.62     696.01     0          0
I014033C         I014033N         I014031N         570.00     0.0160     696.01     695.41     0          0
I014031C         I014031N         I014029N         505.00     0.0160     695.41     694.88     0          0
I014029C         I014029N         I014028N         363.00     0.0160     694.88     694.37     0          0
I014C18C         CSO018N          I014037N         436.00     0.0160     699.59     699.02     0          0
I014037C         I014037N         I014036N         448.00     0.0160     699.02     698.21     0          0
I014036C         I014036N         I014035N         463.00     0.0160     698.21     697.70     0          0
I014035C         I014035N         I014034N         557.00     0.0160     697.70     696.62     0          0
CSO018OFC        CSO018OFN        CSO018OF         300.00     0.0140     699.52     693.00     0          0
CSO002OFC        CSO002OFN        CSO002OF         300.00     0.0140     687.32     680.00     0          0
IC18CC18DC       CSO18D           CSO18C           371.00     0.0140     707.39     706.70     0          0
IC18BC18C        CSO18C           CSO18B           450.00     0.0140     706.70     704.87     0          0
IC18AC18BC       CSO18B           CSO18A           300.00     0.0140     704.87     704.30     0          0
IC18C18AC        CSO18A           CSO018           335.00     0.0140     704.30     699.82     0          0
IC18DC18EC       CSO18E           CSO18D           300.00     0.0096     707.52     707.39     0          0
IC18E045C        I18E045N         CSO18E           300.00     0.0054     707.39     707.52     0          0
I18E049C         I18E049N         I18E047N         565.00     0.0140     708.54     707.95     0          0
I18E047C         I18E047N         I18E046N         420.00     0.0140     707.95     707.62     0          0
I18E046C         I18E046N         I18E045N         416.00     0.0140     707.62     707.39     0          0
I18E054C         I18E054N         I18E052N         493.00     0.0140     709.74     708.91     0          0
I18E066C         I18E066N         I18E064N         513.00     0.0140     712.39     711.72     0          0
I18E064C         I18E064N         I18E062N         455.00     0.0140     711.72     711.35     0          0
I18E071C         I18E071N         I18E068N         300.00     0.0095     713.34     713.13     0          0
I18E068C         I18E068N         I18E067N         432.00     0.0140     713.13     712.57     0          0
I18E067C         I18E067N         I18E066N         382.00     0.0140     712.57     712.39     0          0
I18E075C         I18E075N         I18E074N         318.00     0.0140     714.54     714.25     0          0
I18E074C         I18E074N         I18E072N         482.00     0.0140     714.25     713.82     0          0
I18E072C         I18E072N         I18E071N         428.00     0.0140     713.82     713.34     0          0
I18EC20C         CSO020N          I18E078          300.00     0.0043     716.14     715.30     0          0
I18E078C         I18E078          I18E075N         713.00     0.0140     715.16     714.54     0          0
I009220C         I009220N         I009006N         341.00     0.0140     686.42     681.86     0          0
I009216C         I009216N         I009217N         375.00     0.0140     691.20     689.74     0          0
I009217C         I009217N         I009218N         370.00     0.0140     689.09     687.17     0          0
I009218C         I009218N         I009220N         383.00     0.0140     687.17     686.92     0          0
I009212C         I009212N         I009216N         331.00     0.0140     697.51     691.65     0          0
I009205C         I009202N         I009206N         471.00     0.0140     702.18     700.43     0          0
I009206C         I009206N         I009208N         286.00     0.0140     700.43     699.51     0          0
I009208C         I009208N         I009210N         333.00     0.0140     699.51     698.18     0          0
I009210C         I009210N         I009212N         370.00     0.0140     698.18     698.26     0          0
I009C12C         CSO012           I009202N         300.00     0.0120     703.62     702.28     0          0
CSO012OFC        CSO0120FN        CSO0120F         300.00     0.0140     702.95     692.00     0          0
I012C12AC        CSO012A          CSO012           300.00     0.0052     704.06     703.37     0          0
I12B091C         I12BO91N         CSO12B           531.00     0.0140     710.53     709.93     0          0
I012C12BC        CSO12B           I012088N         366.00     0.0140     709.61     706.47     0          0
I012088C         I012088N         CSO012           349.00     0.0140     706.47     703.49     0          0
I12B093C         I12B093N         I12BO91N         473.00     0.0140     711.27     710.53     0          0
CSO012AOFC       CSO012AOFN       CSO012AOF        300.00     0.0140     703.80     692.20     0          0
I012B013C        CSO013           I12B104N         300.00     0.0028     715.19     714.63     0          0
I12B104C         I12B104N         I12B102N         425.00     0.0140     713.76     713.48     0          0
I12B102C         I12B102N         I12B101N         411.00     0.0140     713.48     712.93     0          0
I12B101C         I12B101N         I12B100N         328.00     0.0140     712.93     712.60     0          0
I12B100C         I12B100N         I12B099N         315.00     0.0140     712.60     712.19     0          0
I12B099C         I12B099N         I12B098N         315.00     0.0140     712.19     711.84     0          0
I12B098C         I12B098N         I12B097N         326.00     0.0140     711.84     711.42     0          0
I12B097C         I12B097N         I12B093N         297.00     0.0140     711.42     711.27     0          0
I010187C         I010187N         CSO010           300.00     0.0087     692.91     692.09     0          0
I010C11AC        CSO011N          CSO010           267.00     0.0100     687.98     687.76     0          0
I010011C         I010011N         I010010N         695.00     0.0160     685.90     684.98     0          0
I010010C         I010010N         CSO010           300.00     0.0085     684.98     684.86     0          0
CSO011OFC        CSO011OFN        CSO011OF         300.00     0.0140     688.58     681.90     0          0
I010C19C         CSO019N          I010190N         271.00     0.0140     696.78     695.90     0          0
I010190C         I010190N         I010187N         430.00     0.0140     695.90     692.91     0          0
CSO0190FC        CSO019OFN        CSO019OF         300.00     0.0140     696.39     681.90     0          0
I010C16C         CSO016N          I010135N         300.00     0.0108     704.24     704.14     0          0
I010135C         I010135N         I010134N         320.00     0.0140     704.14     703.25     0          0
I010134C         I010134N         I010133N         285.00     0.0140     701.35     700.75     0          0
I010133C         I010133N         I010132N         534.00     0.0140     700.75     699.65     0          0
I010132C         I010132N         I010018N         527.00     0.0140     699.65     698.72     0          0
CSO016OFC        CSO016OFN        CSO016OF         300.00     0.0140     704.24     693.00     0          0
I015C17C         CSO017           I015150N         457.00     0.0140     692.79     692.57     0          0
I015150C         I015150N         CSO015N          980.00     0.0140     692.57     691.31     0          0
I014C15C         CSO015N          I014020N         218.00     0.0140     691.21     691.29     0          0
I014020C         I014020N         I014019N         284.00     0.0140     691.29     690.66     0          0
IWTP221C         IWTP221N         IWTP220N         315.00     0.0140     681.96     681.33     0          0
IWTP220C         IWTP220N         IWTP000N         300.00     0.0108     681.33     680.97     0          0
CSO004OFC        CSO004OFN        CSO004OF         300.00     0.0140     684.40     682.00     0          0
I004112C         I004112N         I004111N         362.00     0.0140     698.21     697.08     0          0
I004111C         I004111N         CSO004           584.00     0.0140     697.08     684.58     0          0
I004C06C         CSO006           I004110BN        417.00     0.0140     699.60     697.29     0          0
I004110BC        I004110BN        I004110AN        324.00     0.0140     697.29     695.35     0          0
I004110AC        I004110AN        CSO004N          329.00     0.0140     695.35     684.16     0          0
CSO006OFC        CSO006OFN        CSO006OF         300.00     0.0140     699.82     682.00     0          0
I004116C         I004116N         I004115N         355.00     0.0140     703.16     701.76     0          0
I004115C         I004115N         I004114N         359.00     0.0140     701.76     700.31     0          0
I004114C         I004114N         I004113N         362.00     0.0140     700.31     699.71     0          0
I004113C         I004113N         I004112N         378.00     0.0140     699.71     698.21     0          0
I004C08C         CSO008           I004117N         466.00     0.0140     706.48     704.49     0          0
I004117C         I004117N         I004116N         363.00     0.0140     704.49     703.16     0          0
CSO008OFC        CSO008           CSO008OF         300.00     0.0140     707.34     681.50     0          0
I004C07C         CSO007           I004116N         287.00     0.0140     705.32     704.61     0          0
CSO007OFC        CSO007           CSO007OF         300.00     0.0111     706.64     682.00     0          0
I004005C         CSO005           I004111N         359.00     0.0140     703.41     702.08     0          0
CSO005OFC        CSO005           CSO005OF         240.00     0.0140     704.27     682.00     0          0
T003010C         T003010N         T003009N         700.00     0.0140     700.91     700.58     0          0
T003005C         T003005N         CSO003           950.00     0.0140     699.94     696.14     0          0
CSO009OFC        CSO009OFN        CSO009OF         300.00     0.0140     678.89     678.59     0          0
T011020C         T011020N         T011015N         560.00     0.0140     719.32     714.34     0          0
T011015C         T011015N         T011014N         500.00     0.0140     714.34     712.59     0          0
T011198C         T011198N         CSO011           340.00     0.0140     699.22     688.68     0          0
T012A005C        T012A005N        CSO012A          224.00     0.0140     704.11     704.07     0          0
T012010C         T012010N         I012088N         200.00     0.0140     706.77     706.47     0          0