;; SWMM5 .inp converted from XPSWMM .xp file
;; Generated by XPSWMM Card Reader
;; Source format: XP_CARD | Original title: Austin Street Existing Conditions Model

[TITLE]
;;Project Title/Notes
Austin Street Existing Conditions Model

[OPTIONS]
FLOW_UNITS           CFS
INFILTRATION         HORTON
FLOW_ROUTING         DYNWAVE
LINK_OFFSETS         DEPTH
MIN_SLOPE            0.0
ALLOW_PONDING        NO
SKIP_STEADY_STATE    NO
ROUTING_STEP         00:00:05
VARIABLE_STEP        0.75
INERTIAL_DAMPING     PARTIAL
NORMAL_FLOW_LIMITED  BOTH
MAX_TRIALS           50
HEAD_TOLERANCE       0.0033

[JUNCTIONS]
;;Name           Elev       MaxDepth   InitDepth  SurDepth   Aponded
;;-------------- ---------- ---------- ---------- ---------- ----------
0                43.30      0          0          0          0
0                44.00      0          0          0          0
0                42.70      0          0          0          0
0                44.00      0          0          0          0
0                43.18      0          0          0          0
0                43.20      0          0          0          0
0                43.30      0          0          0          0
0                44.15      0          0          0          0
0                42.92      0          0          0          0
0                44.00      0          0          0          0
0                43.00      0          0          0          0
0                43.18      0          0          0          0
0                42.40      0          0          0          0
0                41.80      0          0          0          0
0                44.00      0          0          0          0
0                44.12      0          0          0          0
0                44.00      0          0          0          0
0                44.00      0          0          0          0
0                41.80      0          0          0          0
0                44.30      0          0          0          0
0                44.38      0          0          0          0
0                43.68      0          0          0          0
0                42.00      0          0          0          0
0                41.80      0          0          0          0
0                44.80      0          0          0          0
0                44.70      0          0          0          0
0                42.70      0          0          0          0
0                44.00      0          0          0          0
0                43.40      0          0          0          0
0                44.30      0          0          0          0
0                41.00      0          0          0          0
0                43.00      0          0          0          0
0                44.26      0          0          0          0
0                44.00      0          0          0          0
0                42.71      0          0          0          0
0                44.38      0          0          0          0
0                44.30      0          0          0          0
0                42.30      0          0          0          0
0                43.20      0          0          0          0
0                42.60      0          0          0          0
0                44.00      0          0          0          0
0                43.30      0          0          0          0
0                43.90      0          0          0          0
0                43.20      0          0          0          0
0                44.50      0          0          0          0
0                43.00      0          0          0          0
0                43.59      0          0          0          0
0                44.39      0          0          0          0
0                44.28      0          0          0          0
0                43.00      0          0          0          0
0                43.80      0          0          0          0
0                43.00      0          0          0          0
0                44.30      0          0          0          0
0                46.32      0          0          0          0
0                45.00      0          0          0          0
0                43.80      0          0          0          0
0                45.00      0          0          0          0
0                44.00      0          0          0          0
0                45.00      0          0          0          0
0                44.00      0          0          0          0
0                44.00      0          0          0          0
0                43.76      0          0          0          0
0                45.00      0          0          0          0
0                44.00      0          0          0          0
0                44.30      0          0          0          0
0                42.86      0          0          0          0
0                44.50      0          0          0          0
0                45.24      0          0          0          0
0                44.30      0          0          0          0
0                44.40      0          0          0          0
0                44.00      0          0          0          0
0                44.30      0          0          0          0
0                44.60      0          0          0          0
0                44.80      0          0          0          0
0                43.00      0          0          0          0
0                43.00      0          0          0          0
0                45.00      0          0          0          0
0                44.00      0          0          0          0
0                44.18      0          0          0          0
0                44.30      0          0          0          0
0                45.00      0          0          0          0
0                45.00      0          0          0          0
0                44.00      0          0          0          0
0                43.20      0          0          0          0
0                44.00      0          0          0          0
0                42.00      0          0          0          0
0                43.35      0          0          0          0
0                42.00      0          0          0          0
0                44.00      0          0          0          0
0                42.81      0          0          0          0
0                43.20      0          0          0          0
0                44.30      0          0          0          0
0                44.00      0          0          0          0
0                43.00      0          0          0          0
0                43.38      0          0          0          0
0                41.25      0          0          0          0
0                44.00      0          0          0          0
0                44.00      0          0          0          0
0                44.50      0          0          0          0
0                43.20      0          0          0          0
0                42.91      0          0          0          0
0                44.30      0          0          0          0
0                43.20      0          0          0          0
0                43.40      0          0          0          0
0                44.30      0          0          0          0
0                44.00      0          0          0          0
0                43.00      0          0          0          0
0                44.10      0          0          0          0
0                44.00      0          0          0          0
0                44.50      0          0          0          0
0                43.60      0          0          0          0
0                43.20      0          0          0          0
0                44.00      0          0          0          0
0                44.80      0          0          0          0
0                43.70      0          0          0          0
0                42.00      0          0          0          0
0                44.30      0          0          0          0
0                44.00      0          0          0          0
0                43.50      0          0          0          0
0                44.30      0          0          0          0
0                44.00      0          0          0          0
0                44.00      0          0          0          0
0                43.50      0          0          0          0
0                43.60      0          0          0          0
0                44.70      0          0          0          0
0                44.00      0          0          0          0
0                43.90      0          0          0          0
0                43.70      0          0          0          0
0                45.50      0          0          0          0
0                44.08      0          0          0          0
0                44.00      0          0          0          0
0                43.40      0          0          0          0
0                44.00      0          0          0          0
0                44.00      0          0          0          0
0                45.00      0          0          0          0
0                43.00      0          0          0          0
0                44.50      0          0          0          0
0                43.10      0          0          0          0
0                43.89      0          0          0          0
0                45.00      0          0          0          0
0                44.00      0          0          0          0
0                43.71      0          0          0          0
0                45.00      0          0          0          0
0                43.50      0          0          0          0
0                45.20      0          0          0          0
0                43.30      0          0          0          0
0                45.00      0          0          0          0
0                45.00      0          0          0          0
0                43.50      0          0          0          0
0                42.80      0          0          0          0
0                44.00      0          0          0          0
0                45.00      0          0          0          0
0                43.07      0          0          0          0
0                43.50      0          0          0          0
0                45.00      0          0          0          0
0                44.50      0          0          0          0
0                45.00      0          0          0          0
0                43.60      0          0          0          0
0                43.50      0          0          0          0
0                43.46      0          0          0          0
0                44.40      0          0          0          0
0                44.00      0          0          0          0
0                43.78      0          0          0          0
0                44.30      0          0          0          0
0                43.44      0          0          0          0
0                43.40      0          0          0          0
0                44.00      0          0          0          0
0                44.00      0          0          0          0
0                43.38      0          0          0          0
0                43.30      0          0          0          0
0                42.70      0          0          0          0
0                42.70      0          0          0          0
0                42.70      0          0          0          0
0                42.40      0          0          0          0
0                42.70      0          0          0          0
0                41.70      0          0          0          0
0                41.70      0          0          0          0
0                41.50      0          0          0          0
0                44.00      0          0          0          0
0                44.00      0          0          0          0
0                44.00      0          0          0          0
0                44.00      0          0          0          0
0                44.00      0          0          0          0
0                44.00      0          0          0          0
0                44.00      0          0          0          0
0                44.00      0          0          0          0
0                43.56      0          0          0          0
0                44.92      0          0          0          0
0                44.60      0          0          0          0
0                44.00      0          0          0          0
0                44.49      0          0          0          0
0                44.00      0          0          0          0
0                44.00      0          0          0          0
0                43.26      0          0          0          0
0                44.00      0          0          0          0
0                44.00      0          0          0          0
0                44.00      0          0          0          0
0                44.00      0          0          0          0
0                43.84      0          0          0          0
0                43.28      0          0          0          0
0                43.53      0          0          0          0
0                43.50      0          0          0          0
0                42.79      0          0          0          0
0                42.20      0          0          0          0
0                44.00      0          0          0          0
0                44.00      0          0          0          0
0                44.69      0          0          0          0
0                43.60      0          0          0          0
0                43.85      0          0          0          0
0                44.00      0          0          0          0
0                44.00      0          0          0          0
0                44.00      0          0          0          0
0                41.80      0          0          0          0
0                41.80      0          0          0          0
0                41.80      0          0          0          0
0                44.50      0          0          0          0
0                44.50      0          0          0          0
0                44.00      0          0          0          0
0                44.00      0          0          0          0
0                41.23      0          0          0          0
0                43.30      0          0          0          0
0                43.72      0          0          0          0
0                43.50      0          0          0          0
0                43.30      0          0          0          0
0                43.30      0          0          0          0
0                43.30      0          0          0          0
0                43.30      0          0          0          0
0                43.30      0          0          0          0
0                43.30      0          0          0          0
0                42.20      0          0          0          0
0                44.00      0          0          0          0
0                41.80      0          0          0          0
0                41.80      0          0          0          0
0                41.80      0          0          0          0
0                41.80      0          0          0          0
0                43.30      0          0          0          0
0                43.30      0          0          0          0
0                43.30      0          0          0          0
0                43.30      0          0          0          0
0                41.80      0          0          0          0
0                44.74      0          0          0          0
0                45.00      0          0          0          0
0                44.30      0          0          0          0
0                44.41      0          0          0          0
0                44.80      0          0          0          0
0                44.80      0          0          0          0
0                45.40      0          0          0          0
0                42.40      0          0          0          0
0                43.00      0          0          0          0
0                43.00      0          0          0          0
0                43.00      0          0          0          0
0                43.00      0          0          0          0
0                43.00      0          0          0          0
0                43.00      0          0          0          0
0                42.73      0          0          0          0
0                53.50      0          0          0          0
0                43.20      0          0          0          0
0                43.20      0          0          0          0
0                43.20      0          0          0          0
0                43.20      0          0          0          0
0                43.20      0          0          0          0
0                43.20      0          0          0          0
0                43.20      0          0          0          0
0                42.70      0          0          0          0
0                42.70      0          0          0          0
0                42.70      0          0          0          0
0                42.70      0          0          0          0
0                42.38      0          0          0          0
0                43.04      0          0          0          0
0                43.18      0          0          0          0
0                43.18      0          0          0          0
0                42.30      0          0          0          0
0                42.30      0          0          0          0
0                44.00      0          0          0          0
0                44.00      0          0          0          0
0                44.00      0          0          0          0
0                44.00      0          0          0          0
0                42.73      0          0          0          0
0                44.30      0          0          0          0
0                44.30      0          0          0          0
0                44.30      0          0          0          0
0                44.30      0          0          0          0
0                46.20      0          0          0          0
0                44.30      0          0          0          0
0                45.40      0          0          0          0
0                45.40      0          0          0          0
0                45.40      0          0          0          0
0                45.50      0          0          0          0
0                45.40      0          0          0          0
0                42.00      0          0          0          0
0                42.00      0          0          0          0
0                45.00      0          0          0          0
0                41.00      0          0          0          0
0                41.00      0          0          0          0
0                41.00      0          0          0          0
0                45.00      0          0          0          0
0                45.00      0          0          0          0
0                44.30      0          0          0          0
0                44.30      0          0          0          0
0                42.00      0          0          0          0
0                44.00      0          0          0          0
0                44.00      0          0          0          0
0                43.60      0          0          0          0
0                45.00      0          0          0          0
0                43.71      0          0          0          0
0                43.50      0          0          0          0
0                43.00      0          0          0          0
0                45.00      0          0          0          0
0                41.25      0          0          0          0
0                41.25      0          0          0          0
0                44.00      0          0          0          0
0                44.00      0          0          0          0
0                43.60      0          0          0          0
0                43.60      0          0          0          0
0                43.60      0          0          0          0
0                43.00      0          0          0          0
0                45.00      0          0          0          0
0                45.00      0          0          0          0
0                44.80      0          0          0          0
0                45.00      0          0          0          0
0                45.00      0          0          0          0
0                45.00      0          0          0          0
0                45.00      0          0          0          0
0                44.00      0          0          0          0
0                44.50      0          0          0          0
0                44.50      0          0          0          0
0                44.44      0          0          0          0
0                44.50      0          0          0          0
0                44.50      0          0          0          0
0                44.50      0          0          0          0
0                44.50      0          0          0          0
0                44.50      0          0          0          0
0                44.50      0          0          0          0
0                44.00      0          0          0          0
0                44.50      0          0          0          0
0                44.50      0          0          0          0
0                45.20      0          0          0          0
0                44.30      0          0          0          0
0                44.30      0          0          0          0
0                44.30      0          0          0          0
0                44.30      0          0          0          0
0                44.30      0          0          0          0
0                45.50      0          0          0          0
0                44.69      0          0          0          0
0                45.50      0          0          0          0
0                45.50      0          0          0          0
0                46.32      0          0          0          0
0                46.32      0          0          0          0
0                46.32      0          0          0          0
0                46.32      0          0          0          0
0                46.32      0          0          0          0
0                44.30      0          0          0          0
0                44.30      0          0          0          0
0                44.30      0          0          0          0
0                44.30      0          0          0          0
0                44.30      0          0          0          0
0                44.30      0          0          0          0
0                44.30      0          0          0          0
0                44.30      0          0          0          0
0                44.30      0          0          0          0
0                44.30      0          0          0          0
0                45.11      0          0          0          0
0                44.12      0          0          0          0
0                43.00      0          0          0          0
0                43.96      0          0          0          0
0                44.00      0          0          0          0
0                44.18      0          0          0          0
0                44.00      0          0          0          0
0                44.00      0          0          0          0
0                44.00      0          0          0          0
0                43.68      0          0          0          0
0                44.98      0          0          0          0
0                44.00      0          0          0          0
0                43.00      0          0          0          0
0                44.00      0          0          0          0
0                45.00      0          0          0          0
0                44.70      0          0          0          0
0                44.70      0          0          0          0
0                43.24      0          0          0          0
0                43.00      0          0          0          0
0                43.00      0          0          0          0
0                43.00      0          0          0          0
0                43.08      0          0          0          0
0                43.08      0          0          0          0
0                42.91      0          0          0          0
0                43.00      0          0          0          0
0                43.59      0          0          0          0
0                43.59      0          0          0          0
0                43.00      0          0          0          0
0                43.58      0          0          0          0
0                43.20      0          0          0          0
0                43.58      0          0          0          0
0                43.20      0          0          0          0
0                44.30      0          0          0          0
0                42.60      0          0          0          0
0                43.00      0          0          0          0
0                43.00      0          0          0          0
0                43.18      0          0          0          0
0                43.28      0          0          0          0
0                43.28      0          0          0          0
0                43.28      0          0          0          0
0                44.20      0          0          0          0
0                44.20      0          0          0          0
0                43.80      0          0          0          0
0                44.45      0          0          0          0
0                45.00      0          0          0          0
0                43.00      0          0          0          0
0                43.28      0          0          0          0
0                43.28      0          0          0          0
0                43.54      0          0          0          0
0                43.00      0          0          0          0
0                43.00      0          0          0          0
0                44.00      0          0          0          0
0                43.48      0          0          0          0
0                43.00      0          0          0          0
0                45.00      0          0          0          0
0                44.00      0          0          0          0
0                44.00      0          0          0          0
0                44.39      0          0          0          0
0                45.00      0          0          0          0
0                45.00      0          0          0          0
0                44.00      0          0          0          0
0                44.00      0          0          0          0
0                44.00      0          0          0          0
0                44.00      0          0          0          0
0                45.04      0          0          0          0
0                45.00      0          0          0          0
0                43.00      0          0          0          0
0                44.10      0          0          0          0
0                44.08      0          0          0          0
0                44.00      0          0          0          0
0                44.00      0          0          0          0
0                44.00      0          0          0          0
0                45.00      0          0          0          0
0                43.50      0          0          0          0
0                43.20      0          0          0          0
0                43.00      0          0          0          0
0                42.60      0          0          0          0
0                43.38      0          0          0          0
0                44.00      0          0          0          0
0                43.38      0          0          0          0
0                43.20      0          0          0          0
0                41.80      0          0          0          0
0                42.40      0          0          0          0
0                41.80      0          0          0          0
0                44.70      0          0          0          0
0                42.80      0          0          0          0
0                44.30      0          0          0          0
0                43.48      0          0          0          0
0                43.76      0          0          0          0
0                41.87      0          0          0          0
0                41.00      0          0          0          0
0                41.00      0          0          0          0
0                41.00      0          0          0          0
0                44.00      0          0          0          0
0                44.00      0          0          0          0
0                42.80      0          0          0          0
0                43.20      0          0          0          0
0                43.38      0          0          0          0
0                44.00      0          0          0          0
0                43.50      0          0          0          0
0                43.40      0          0          0          0
0                44.00      0          0          0          0
0                43.58      0          0          0          0