;; SWMM5 .inp converted from XPSWMM .xp file
;; Generated by XPSWMM Card Reader
;; Source format: XP_CARD | Original title: SMITH RD, EXISTING U/S JUNCTION 1.05, 100YR, 2HR

[TITLE]
;;Project Title/Notes
SMITH RD, EXISTING U/S JUNCTION 1.05, 100YR, 2HR

[OPTIONS]
FLOW_UNITS           CMS
INFILTRATION         HORTON
FLOW_ROUTING         DYNWAVE
LINK_OFFSETS         DEPTH
MIN_SLOPE            0.0
ALLOW_PONDING        NO
SKIP_STEADY_STATE    NO
ROUTING_STEP         00:00:02
VARIABLE_STEP        0.75
INERTIAL_DAMPING     PARTIAL
NORMAL_FLOW_LIMITED  BOTH
MAX_TRIALS           500
HEAD_TOLERANCE       .001

[JUNCTIONS]
;;Name           Elev       MaxDepth   InitDepth  SurDepth   Aponded
;;-------------- ---------- ---------- ---------- ---------- ----------
1.05             25.00      0          0          0          0
1.14             25.00      0          0          0          0
1.24             25.00      0          0          0          0
1.13             30.00      0          0          0          0
1.03             30.00      0          0          0          0
1.22             30.00      0          0          0          0
1.120            30.00      0          0          0          0
1.121            30.00      0          0          0          0
1.02             28.73      0          0          0          0
M.05             27.37      0          0          0          0
M.04             27.50      0          0          0          0
M.02             26.62      0          0          0          0
M.01             25.75      0          0          0          0
1.031            30.00      0          0          0          0
1.032            30.00      0          0          0          0
1.033            30.00      0          0          0          0
1.131            30.00      0          0          0          0
1.132            30.00      0          0          0          0
1.133            30.00      0          0          0          0
1.134            30.00      0          0          0          0

[STORAGE]
;;Name           Elev       MaxDepth   InitDepth  Shape      Curve/Params
;;-------------- ---------- ---------- ---------- ---------- ----------
1.04             25.00      0          0          FUNCTIONAL 5.00 0          0
M.03             27.07      0          0          FUNCTIONAL 1.00 0          0

[CONDUITS]
;;Name           From             To               Length     Roughness  InOffset   OutOffset  InitFlow   MaxFlow
;;-------------- ---------------- ---------------- ---------- ---------- ---------- ---------- ---------- ----------
114              1.14             1.24             0          0          15.45      14.55      0          0
124              1.24             1.05             0          0          14.55      13.64      0          0
102              1.121            1.120            0          0          20.42      19.85      0          0
112              1.120            1.22             0          0          19.85      18.76      0          0
122              1.22             1.03             0          0          18.76      17.51      0          0
104.1            104.2            1.14             23.00      0.0140     15.64      15.45      0          0
M06              1.02             M.05             0          0          24.80      23.80      0          0
M05              M.05             M.04             0          0          23.80      23.50      0          0
M04              M.04             M.03             0          0          23.50      23.00      0          0
M01              M.01             1.121            0          0          22.10      20.42      0          0
M03              M.03             M.02             0          0          23.00      22.60      0          0
M02              M.02             M.01             0          0          22.60      22.10      0          0
103.0            1.03             1.031            0          0          17.51      17.26      0          0
103.1            1.031            1.032            0          0          17.26      16.98      0          0
103.2            1.032            1.033            0          0          16.98      16.70      0          0
113.0            1.13             1.131            0          0          16.43      16.26      0          0
113.1            1.131            1.132            0          0          16.26      16.10      0          0
113.2            1.132            1.133            0          0          16.10      15.93      0          0
113.3            1.133            1.134            0          0          15.93      15.76      0          0
113.4            1.134            1.04             0          0          15.76      15.64      0          0
103.3            1.033            1.13             0          0          16.70      16.43      0          0

[XSECTIONS]
;;Link           Shape        Geom1      Geom2      Geom3      Geom4      Barrels
;;-------------- ------------ ---------- ---------- ---------- ---------- ----------
114              IRREGULAR    5.45       0          0          0          1
124              IRREGULAR    7.11       0          0          0          1
102              IRREGULAR    5.95       0          0          0          1
112              IRREGULAR    8.00       0          0          0          1
122              IRREGULAR    8.00       0          0          0          1
104.1            RECT_CLOSED  2.39       3.70       0          0          1
M06              IRREGULAR    2.50       0          0          0          1
M05              IRREGULAR    3.20       0          0          0          1
M04              IRREGULAR    3.40       0          0          0          1
M01              IRREGULAR    3.50       0          0          0          1
M03              IRREGULAR    4.00       0          0          0          1
M02              IRREGULAR    3.50       0          0          0          1
103.0            IRREGULAR    3.80       0          0          0          1
103.1            IRREGULAR    3.90       0          0          0          1
103.2            IRREGULAR    4.20       0          0          0          1
113.0            IRREGULAR    4.60       0          0          0          1
113.1            IRREGULAR    4.80       0          0          0          1
113.2            IRREGULAR    5.00       0          0          0          1
113.3            IRREGULAR    5.20       0          0          0          1
113.4            IRREGULAR    5.30       0          0          0          1
103.3            IRREGULAR    4.50       0          0          0          1

[LOSSES]
;;Link           Inlet      Outlet     Average    Flap Gate
;;-------------- ---------- ---------- ---------- ----------
114              0          0          0          NO
124              0          0          0          NO
102              0          0          0          NO
112              0          0          0          NO
122              0          0          0          NO
104.1            0          0          0          NO
M06              0          0          0          NO
M05              0          0          0          NO
M04              0          0          0          NO
M01              0          0          0          NO
M03              0          0          0          NO
M02              0          0          0          NO
103.0            0          0          0          NO
103.1            0          0          0          NO
103.2            0          0          0          NO
113.0            0          0          0          NO
113.1            0          0          0          NO
113.2            0          0          0          NO
113.3            0          0          0          NO
113.4            0          0          0          NO
103.3            0          0          0          NO

[COORDINATES]
;;Node           X-Coord            Y-Coord
;;-------------- ------------------ ------------------
1.05             -50.30             49.30             
1.14             -88.81             -27.48            
1.24             -87.97             38.54             
1.04             -91.30             -101.46           
1.13             -93.20             -297.45           
1.03             -97.52             -466.04           
1.22             -97.52             -553.66           
1.120            -95.15             -637.50           
1.121            -93.19             -723.96           
1.02             -81.91             -1332.89          
M.05             -83.70             -1236.42          
M.04             -87.19             -1134.27          
M.03             -88.94             -1040.06          
M.02             -91.93             -929.36           
M.01             -91.91             -837.08           
1.031            -56.89             -427.50           
1.032            -93.88             -384.92           
1.033            -59.69             -348.61           
1.131            -61.08             -245.92           
1.132            -93.88             -212.11           
1.133            -61.78             -177.05           
1.134            -92.49             -149.50           

[MAP]
DIMENSIONS -97.52 -1332.89 -50.30 49.30
Units      None

[REPORT]
INPUT            YES
SUBCATCHMENTS    ALL
NODES            ALL
LINKS            ALL



