;; SWMM5 .inp converted from XPSWMM .xp file
;; Generated by XPSWMM Card Reader
;; Source format: XP_CARD | Original title: Wastewater Information Management System : Honolulu

[TITLE]
;;Project Title/Notes
Wastewater Information Management System : Honolulu

[OPTIONS]
FLOW_UNITS           CFS
INFILTRATION         HORTON
FLOW_ROUTING         DYNWAVE
LINK_OFFSETS         DEPTH
MIN_SLOPE            0.0
ALLOW_PONDING        NO
SKIP_STEADY_STATE    NO
ROUTING_STEP         00:00:15
VARIABLE_STEP        0.75
INERTIAL_DAMPING     PARTIAL
NORMAL_FLOW_LIMITED  BOTH
MAX_TRIALS           50
HEAD_TOLERANCE       0.0033

[JUNCTIONS]
;;Name           Elev       MaxDepth   InitDepth  SurDepth   Aponded
;;-------------- ---------- ---------- ---------- ---------- ----------
30530038         17.00      0          0          0          0
30530063         16.88      0          0          0          0
30530134         14.80      0          0          0          0
30530136         14.68      0          0          0          0
30530200         12.50      0          0          0          0
30530221         11.53      0          0          0          0
30530236         11.30      0          0          0          0
30530241         11.70      0          0          0          0
30530243         11.80      0          0          0          0
30530290         7.00       0          0          0          0
30530308         7.00       0          0          0          0
30530396         10.30      0          0          0          0
30530494         11.50      0          0          0          0
30530604         11.60      0          0          0          0
30530715         9.90       0          0          0          0
30531552         12.50      0          0          0          0
30540041         5.06       0          0          0          0
30540097         5.02       0          0          0          0
30540150         6.52       0          0          0          0
30540207         7.92       0          0          0          0
30540270         10.00      0          0          0          0
30540289         8.97       0          0          0          0
30540312         8.97       0          0          0          0
30540331         9.76       0          0          0          0
30540409         7.94       0          0          0          0
30540432         7.00       0          0          0          0
30540458         6.83       0          0          0          0
30540479         6.83       0          0          0          0
30540622         4.81       0          0          0          0
30540745         5.11       0          0          0          0
30540912         6.08       0          0          0          0
30541077         9.98       0          0          0          0
30541204         12.40      0          0          0          0
30541434         8.35       0          0          0          0
30541441         7.66       0          0          0          0
26520143         7.68       0          0          0          0
26520157         7.60       0          0          0          0
26520202         6.63       0          0          0          0
26520285         8.27       0          0          0          0
26520304         7.33       0          0          0          0
26530297         6.80       0          0          0          0
26530319         5.83       0          0          0          0
26530348         6.56       0          0          0          0
27520028         10.51      0          0          0          0
27520039         10.81      0          0          0          0
27520121         10.01      0          0          0          0
27520232         7.92       0          0          0          0
27520546         9.12       0          0          0          0
27520560         7.20       0          0          0          0
27520578         6.81       0          0          0          0
27520697         6.14       0          0          0          0
27520797         7.87       0          0          0          0
27520887         6.05       0          0          0          0
27521026         6.06       0          0          0          0
27521158         6.52       0          0          0          0
27521335         6.14       0          0          0          0
27530144         8.56       0          0          0          0
27530172         8.55       0          0          0          0
27530191         8.57       0          0          0          0
27530197         8.96       0          0          0          0
27530206         8.95       0          0          0          0
27530229         9.50       0          0          0          0
27530268         9.48       0          0          0          0
27530312         9.69       0          0          0          0
27530334         9.42       0          0          0          0
27530373         9.29       0          0          0          0
27530400         9.31       0          0          0          0
27530443         9.46       0          0          0          0
27530495         9.22       0          0          0          0
27530552         10.86      0          0          0          0
27530580         11.51      0          0          0          0
27530647         11.50      0          0          0          0
27530677         12.05      0          0          0          0
27530693         12.26      0          0          0          0
27530751         12.05      0          0          0          0
27530780         12.12      0          0          0          0
27530852         10.84      0          0          0          0
28520128         5.73       0          0          0          0
28520280         7.70       0          0          0          0
28520371         8.00       0          0          0          0
28520574         8.76       0          0          0          0
28520701         8.65       0          0          0          0
28520733         8.61       0          0          0          0
28520787         8.51       0          0          0          0
28520862         8.32       0          0          0          0
28520988         8.00       0          0          0          0
28521120         8.40       0          0          0          0
28521166         8.22       0          0          0          0
28521269         7.79       0          0          0          0
28521316         7.60       0          0          0          0
28521361         7.45       0          0          0          0
28521461         7.00       0          0          0          0
28521562         7.00       0          0          0          0
28521626         7.04       0          0          0          0
28521764         6.40       0          0          0          0
28521830         7.13       0          0          0          0
28521873         7.70       0          0          0          0
28521963         8.55       0          0          0          0
28521980         8.62       0          0          0          0
28522075         8.92       0          0          0          0
28522174         8.44       0          0          0          0
28530050         9.68       0          0          0          0
28530069         9.84       0          0          0          0
28530178         10.76      0          0          0          0
28530242         10.59      0          0          0          0
28530320         9.29       0          0          0          0
28530342         9.21       0          0          0          0
28530462         9.00       0          0          0          0
28530542         8.63       0          0          0          0
28530644         8.69       0          0          0          0
28530717         9.04       0          0          0          0
28530770         9.40       0          0          0          0
28530809         9.62       0          0          0          0
28530910         9.36       0          0          0          0
28530977         9.36       0          0          0          0
28531133         12.04      0          0          0          0
28531190         10.92      0          0          0          0
28531322         10.04      0          0          0          0
28531383         9.94       0          0          0          0
28531497         8.98       0          0          0          0
28531605         9.39       0          0          0          0
28531639         9.34       0          0          0          0
28531740         9.94       0          0          0          0
28531844         10.38      0          0          0          0
28532007         10.66      0          0          0          0
28532028         10.47      0          0          0          0
28532120         9.31       0          0          0          0
28532303         7.80       0          0          0          0
28532445         7.90       0          0          0          0
28532556         7.90       0          0          0          0
28532640         7.90       0          0          0          0
28532791         8.90       0          0          0          0
28532887         8.50       0          0          0          0
28540032         9.40       0          0          0          0
28540039         9.23       0          0          0          0
28540070         8.14       0          0          0          0
28540097         5.04       0          0          0          0
28540102         9.18       0          0          0          0
28540120         7.66       0          0          0          0
28540128         8.63       0          0          0          0
28540140         6.25       0          0          0          0
28540142         8.48       0          0          0          0
28540147         7.59       0          0          0          0
28540176         8.69       0          0          0          0
28540178         11.31      0          0          0          0
28540227         12.47      0          0          0          0
28540241         11.24      0          0          0          0
29520076         8.60       0          0          0          0
29520078         8.48       0          0          0          0
29520118         7.81       0          0          0          0
29520144         6.60       0          0          0          0
29520190         5.90       0          0          0          0
29520209         4.50       0          0          0          0
29520241         26.20      0          0          0          0
29520242         34.70      0          0          0          0
29520243         42.20      0          0          0          0
29520244         51.20      0          0          0          0
29520245         53.40      0          0          0          0
29520246         55.70      0          0          0          0
29520248         63.20      0          0          0          0
29520254         71.20      0          0          0          0
29520258         74.00      0          0          0          0
29530494         5.80       0          0          0          0
29530561         7.80       0          0          0          0
29530590         0          0          0          0          0
29530599         6.60       0          0          0          0
29530606         10.00      0          0          0          0
29530611         9.63       0          0          0          0
29530614         9.20       0          0          0          0
29530615         9.58       0          0          0          0
29530620         10.30      0          0          0          0
29530635         8.62       0          0          0          0
29530641         12.40      0          0          0          0
29530643         12.50      0          0          0          0
29530655         13.20      0          0          0          0
29530679         14.50      0          0          0          0
29530683         9.40       0          0          0          0
29530697         15.60      0          0          0          0
29530700         8.29       0          0          0          0
29530705         6.72       0          0          0          0
29530710         17.60      0          0          0          0
29530727         6.24       0          0          0          0
29530765         7.16       0          0          0          0
29530781         5.06       0          0          0          0
29530826         8.20       0          0          0          0
29530827         8.60       0          0          0          0
29530828         8.60       0          0          0          0
29530852         11.80      0          0          0          0
29530864         7.60       0          0          0          0
29530900         6.20       0          0          0          0
29530901         11.60      0          0          0          0
29530942         7.20       0          0          0          0
29531026         8.10       0          0          0          0
29531035         7.30       0          0          0          0
29531039         7.39       0          0          0          0
29531109         7.95       0          0          0          0
29531185         6.11       0          0          0          0
29531220         12.78      0          0          0          0
29540053         5.42       0          0          0          0
29540097         11.76      0          0          0          0
29540120         6.31       0          0          0          0
29540121         6.63       0          0          0          0
29540142         5.23       0          0          0          0
29540164         11.97      0          0          0          0
29540175         4.85       0          0          0          0
29540231         11.83      0          0          0          0
29540284         6.15       0          0          0          0
29540319         9.82       0          0          0          0
29540328         6.62       0          0          0          0
29540341         8.49       0          0          0          0
29540357         6.16       0          0          0          0
29540361         12.00      0          0          0          0
29540374         8.11       0          0          0          0
29540407         6.49       0          0          0          0
29540447         7.48       0          0          0          0
29540466         11.16      0          0          0          0
29540471         9.11       0          0          0          0
29540476         7.95       0          0          0          0
29540542         11.36      0          0          0          0
29540608         9.82       0          0          0          0
29540716         9.12       0          0          0          0
29540872         8.49       0          0          0          0
29540973         8.68       0          0          0          0
29541113         8.80       0          0          0          0
29541136         7.56       0          0          0          0
29541377         5.99       0          0          0          0
29541383         7.00       0          0          0          0
29541427         6.83       0          0          0          0
29541429         7.20       0          0          0          0
29541466         6.31       0          0          0          0
29541632         6.03       0          0          0          0
29541828         6.90       0          0          0          0
29542022         4.73       0          0          0          0
29542174         6.27       0          0          0          0
29542277         4.79       0          0          0          0
29550002         38.80      0          0          0          0
29550009         32.30      0          0          0          0
29550015         20.10      0          0          0          0
29550018         13.40      0          0          0          0
29550108         8.49       0          0          0          0
29550128         38.00      0          0          0          0
29550165         8.91       0          0          0          0
29550173         8.76       0          0          0          0
29550178         8.88       0          0          0          0
29550203         8.67       0          0          0          0
29550234         8.49       0          0          0          0
29550258         8.43       0          0          0          0
29550297         8.27       0          0          0          0
29550349         8.39       0          0          0          0
29550383         7.86       0          0          0          0
29550427         8.06       0          0          0          0
29550469         7.90       0          0          0          0
29550501         7.93       0          0          0          0
29550531         7.69       0          0          0          0
29550581         7.39       0          0          0          0
29550636         8.54       0          0          0          0
25460024         44.60      0          0          0          0
25460026         44.60      0          0          0          0
25460045         46.80      0          0          0          0
25460048         47.00      0          0          0          0
25460055         56.85      0          0          0          0
25460058         56.96      0          0          0          0
25460079         57.20      0          0          0          0
25460083         52.32      0          0          0          0
25460086         55.01      0          0          0          0
25460095         55.37      0          0          0          0
25460097         51.50      0          0          0          0
25460098         51.80      0          0          0          0
25460136         54.97      0          0          0          0
25460173         57.57      0          0          0          0
25460204         59.15      0          0          0          0
25460236         61.78      0          0          0          0
25460244         62.80      0          0          0          0
25460271         67.95      0          0          0          0
25460277         73.11      0          0          0          0
25460296         77.85      0          0          0          0
25460310         80.40      0          0          0          0
25460325         82.10      0          0          0          0
25460370         85.45      0          0          0          0
26480431         88.00      0          0          0          0
26480465         80.00      0          0          0          0
26480803         5.87       0          0          0          0
26480815         84.00      0          0          0          0
26481089         88.83      0          0          0          0
26481292         90.63      0          0          0          0
26481379         92.25      0          0          0          0
26481384         92.04      0          0          0          0
27480074         87.60      0          0          0          0
27480182         88.46      0          0          0          0
27480285         89.91      0          0          0          0
27480309         91.02      0          0          0          0
27480332         95.36      0          0          0          0
27480352         95.20      0          0          0          0
27480382         91.26      0          0          0          0
27480460         89.04      0          0          0          0
27480494         93.01      0          0          0          0
27480506         97.46      0          0          0          0
27480515         105.07     0          0          0          0
27480549         86.12      0          0          0          0
27480633         94.10      0          0          0          0
27480685         93.97      0          0          0          0
27480724         85.82      0          0          0          0
27480730         81.71      0          0          0          0
27480734         96.01      0          0          0          0
27480742         85.54      0          0          0          0
27480750         80.06      0          0          0          0
27480773         60.29      0          0          0          0
27480788         75.84      0          0          0          0
27480813         62.30      0          0          0          0
27480825         70.42      0          0          0          0
27480827         73.68      0          0          0          0
27480843         63.51      0          0          0          0
27480858         67.79      0          0          0          0
27480894         67.14      0          0          0          0
27481554         43.31      0          0          0          0
27481558         38.50      0          0          0          0
27481565         41.78      0          0          0          0
27481578         42.49      0          0          0          0
27481588         43.21      0          0          0          0
27481639         45.10      0          0          0          0
27481659         40.62      0          0          0          0
27481669         38.67      0          0          0          0
27481720         42.23      0          0          0          0
27481752         42.45      0          0          0          0
27481792         44.47      0          0          0          0
27481858         50.54      0          0          0          0
27481967         48.39      0          0          0          0
27482027         49.74      0          0          0          0
27482112         53.73      0          0          0          0
27482155         51.80      0          0          0          0
27490698         55.87      0          0          0          0
27490710         56.02      0          0          0          0
27490726         59.22      0          0          0          0
27490734         58.49      0          0          0          0
27490753         57.34      0          0          0          0
27490769         61.09      0          0          0          0
27490772         61.81      0          0          0          0
27490845         56.99      0          0          0          0
27490865         58.65      0          0          0          0
27490981         55.96      0          0          0          0
27490990         54.13      0          0          0          0
27491053         61.91      0          0          0          0
27491224         62.81      0          0          0          0
27491320         59.75      0          0          0          0
27491359         56.68      0          0          0          0
27491432         54.98      0          0          0          0
27491481         64.60      0          0          0          0
27491538         57.52      0          0          0          0
27491718         57.11      0          0          0          0
27491827         43.60      0          0          0          0
27491878         35.94      0          0          0          0
27491987         34.15      0          0          0          0
27492018         30.00      0          0          0          0
27492042         29.70      0          0          0          0
27492057         24.79      0          0          0          0
27492064         33.75      0          0          0          0
27492066         30.63      0          0          0          0
27492071         35.79      0          0          0          0
27492089         37.57      0          0          0          0
27492216         21.11      0          0          0          0
27492284         21.15      0          0          0          0
27492290         18.10      0          0          0          0
27492306         22.00      0          0          0          0
27492316         18.40      0          0          0          0
27492333         18.40      0          0          0          0
27492435         23.32      0          0          0          0
27492446         24.00      0          0          0          0
27492454         16.54      0          0          0          0
27492460         18.50      0          0          0          0
27492471         17.80      0          0          0          0
27492473         11.30      0          0          0          0
27492487         17.00      0          0          0          0
27492541         10.02      0          0          0          0
27492548         14.40      0          0          0          0
27492596         9.09       0          0          0          0
27492600         14.00      0          0          0          0
27492670         10.09      0          0          0          0
27492679         12.70      0          0          0          0
27492683         7.95       0          0          0          0
27492688         5.99       0          0          0          0
27492692         5.63       0          0          0          0
27492694         5.12       0          0          0          0
27492700         5.03       0          0          0          0
27492746         12.24      0          0          0          0
27492783         11.38      0          0          0          0
27500012         5.93       0          0          0          0
27500021         7.29       0          0          0          0
27500033         5.57       0          0          0          0
27500049         6.24       0          0          0          0
27500057         8.04       0          0          0          0
27500084         7.37       0          0          0          0
27500091         8.23       0          0          0          0
27500095         7.29       0          0          0          0
27500098         6.71       0          0          0          0
27500099         6.00       0          0          0          0
27500101         6.40       0          0          0          0
27500107         6.00       0          0          0          0
27500145         8.31       0          0          0          0
27500199         6.03       0          0          0          0
27500207         9.68       0          0          0          0
27500212         9.98       0          0          0          0
27500219         6.50       0          0          0          0
27500238         5.83       0          0          0          0
27500241         19.80      0          0          0          0
27500255         4.68       0          0          0          0
27500263         17.20      0          0          0          0
27500271         4.64       0          0          0          0
27500336         6.16       0          0          0          0
27500411         6.13       0          0          0          0
27500447         6.03       0          0          0          0
27500526         6.71       0          0          0          0
27500588         6.73       0          0          0          0
27500660         6.93       0          0          0          0
27500677         6.50       0          0          0          0
27510388         34.48      0          0          0          0
27510422         34.14      0          0          0          0
27510454         32.22      0          0          0          0
27510497         27.56      0          0          0          0
27510499         12.20      0          0          0          0
27510530         4.47       0          0          0          0
27510558         3.98       0          0          0          0
27510613         4.20       0          0          0          0
28480124         53.44      0          0          0          0
28480244         57.04      0          0          0          0
28480388         60.54      0          0          0          0
28480555         64.64      0          0          0          0
28480701         68.74      0          0          0          0
28480886         71.54      0          0          0          0
28481023         72.91      0          0          0          0
28481150         74.28      0          0          0          0
28481217         73.51      0          0          0          0
28481384         78.00      0          0          0          0
28481399         78.06      0          0          0          0
28481449         78.11      0          0          0          0
28481550         86.75      0          0          0          0
28481637         88.11      0          0          0          0
28481721         89.64      0          0          0          0
28481841         90.54      0          0          0          0
28481946         96.83      0          0          0          0
28482052         96.12      0          0          0          0
28482111         99.97      0          0          0          0
28482183         98.23      0          0          0          0
28482261         99.93      0          0          0          0
28482400         106.49     0          0          0          0
28483699         97.09      0          0          0          0
28482543         98.99      0          0          0          0
28490066         19.37      0          0          0          0
28490155         13.40      0          0          0          0
28500045         7.09       0          0          0          0
28500047         7.25       0          0          0          0
28500123         7.18       0          0          0          0
29480069         109.60     0          0          0          0
29480135         112.00     0          0          0          0
29480195         114.41     0          0          0          0
29480267         116.30     0          0          0          0
29480362         119.52     0          0          0          0
29480402         119.62     0          0          0          0
29480416         121.00     0          0          0          0
29480421         120.71     0          0          0          0
29480423         121.42     0          0          0          0
29481469         109.99     0          0          0          0
27510797         3.40       0          0          0          0
27510798         33.00      0          0          0          0