;; SWMM5 .inp converted from XPSWMM .xp file
;; Generated by XPSWMM Card Reader
;; Source format: XP_CARD | Original title: Shelter Rock Road Watershed Study

[TITLE]
;;Project Title/Notes
Shelter Rock Road Watershed Study

[OPTIONS]
FLOW_UNITS           CFS
INFILTRATION         HORTON
FLOW_ROUTING         DYNWAVE
LINK_OFFSETS         DEPTH
MIN_SLOPE            0.0
ALLOW_PONDING        NO
SKIP_STEADY_STATE    NO
ROUTING_STEP         00:00:05
VARIABLE_STEP        0.75
INERTIAL_DAMPING     PARTIAL
NORMAL_FLOW_LIMITED  BOTH
MAX_TRIALS           50
HEAD_TOLERANCE       0.0033

[JUNCTIONS]
;;Name           Elev       MaxDepth   InitDepth  SurDepth   Aponded
;;-------------- ---------- ---------- ---------- ---------- ----------
1                151.00     0          0          0          0
4                153.40     0          0          0          0
5                157.40     0          0          0          0
6                156.67     0          0          0          0
7                156.63     0          0          0          0
8                156.31     0          0          0          0
9                154.86     0          0          0          0
10               152.63     0          0          0          0
11               151.19     0          0          0          0
12               156.70     0          0          0          0
13               158.10     0          0          0          0
14               162.10     0          0          0          0
15               160.31     0          0          0          0
16               154.70     0          0          0          0
17               156.67     0          0          0          0
18               156.60     0          0          0          0
19               156.70     0          0          0          0
20               157.72     0          0          0          0
21               160.40     0          0          0          0
22               156.47     0          0          0          0
23               156.34     0          0          0          0
24               158.17     0          0          0          0
25               158.96     0          0          0          0
26               160.10     0          0          0          0
27               161.00     0          0          0          0
28               162.50     0          0          0          0
29               157.26     0          0          0          0
30               152.99     0          0          0          0
31               151.44     0          0          0          0
32               160.97     0          0          0          0
33               158.92     0          0          0          0
34               151.44     0          0          0          0
35               151.44     0          0          0          0
36               158.67     0          0          0          0
37               158.68     0          0          0          0
38               160.87     0          0          0          0
39               162.90     0          0          0          0
40               164.90     0          0          0          0
41               167.00     0          0          0          0
42               169.80     0          0          0          0
43               174.80     0          0          0          0
44               174.60     0          0          0          0
45               174.10     0          0          0          0
46               174.50     0          0          0          0
47               176.30     0          0          0          0
48               180.50     0          0          0          0
49               190.80     0          0          0          0
51               185.00     0          0          0          0
52               166.22     0          0          0          0
53               166.22     0          0          0          0
54               165.69     0          0          0          0
55               167.66     0          0          0          0
56               174.00     0          0          0          0
57               166.25     0          0          0          0
58               165.69     0          0          0          0
59               164.74     0          0          0          0
60               163.13     0          0          0          0
61               161.56     0          0          0          0
62               160.41     0          0          0          0
63               156.54     0          0          0          0
64               160.30     0          0          0          0
65               159.10     0          0          0          0
66               157.55     0          0          0          0
67               155.39     0          0          0          0
68               154.80     0          0          0          0
69               156.18     0          0          0          0
70               157.55     0          0          0          0
71               158.96     0          0          0          0
72               160.51     0          0          0          0
73               161.92     0          0          0          0
74               162.93     0          0          0          0
75               163.33     0          0          0          0
76               164.80     0          0          0          0
77               168.77     0          0          0          0
78               175.66     0          0          0          0
79               183.08     0          0          0          0
80               189.28     0          0          0          0
81               196.40     0          0          0          0
82               203.45     0          0          0          0
83               210.24     0          0          0          0
84               204.30     0          0          0          0
85               217.70     0          0          0          0
86               206.40     0          0          0          0
87               201.20     0          0          0          0
88               191.20     0          0          0          0
89               185.30     0          0          0          0
90               180.50     0          0          0          0
91               176.20     0          0          0          0
92               173.53     0          0          0          0
93               169.40     0          0          0          0
94               167.50     0          0          0          0
96               165.30     0          0          0          0
97               165.72     0          0          0          0
98               171.07     0          0          0          0
99               172.61     0          0          0          0
100              154.00     0          0          0          0
101              154.11     0          0          0          0
104              157.20     0          0          0          0
105              155.50     0          0          0          0
106              155.50     0          0          0          0
107              155.50     0          0          0          0
108              157.50     0          0          0          0
109              160.70     0          0          0          0
110              165.70     0          0          0          0
111              167.00     0          0          0          0
112              151.00     0          0          0          0
113              158.00     0          0          0          0
114              155.40     0          0          0          0
117              157.20     0          0          0          0
118              155.85     0          0          0          0
119              155.98     0          0          0          0
120              156.50     0          0          0          0
121              158.60     0          0          0          0
122              160.40     0          0          0          0
123              161.50     0          0          0          0
124              158.50     0          0          0          0
125              158.50     0          0          0          0
126              156.50     0          0          0          0
127              158.00     0          0          0          0
128              206.51     0          0          0          0
130              175.00     0          0          0          0
131              174.34     0          0          0          0
132              176.51     0          0          0          0
133              173.97     0          0          0          0
137              180.20     0          0          0          0
138              172.90     0          0          0          0
139              169.69     0          0          0          0
140              167.63     0          0          0          0
141              173.01     0          0          0          0
142              218.10     0          0          0          0
143              217.50     0          0          0          0
145              191.00     0          0          0          0
146              186.24     0          0          0          0
147              204.00     0          0          0          0
148              204.70     0          0          0          0
149              162.00     0          0          0          0
150              164.00     0          0          0          0
151              164.00     0          0          0          0
152              161.20     0          0          0          0
153              159.50     0          0          0          0
154              160.30     0          0          0          0
155              158.65     0          0          0          0
156              155.10     0          0          0          0
157              154.70     0          0          0          0
158              154.20     0          0          0          0
159              153.10     0          0          0          0
160              152.00     0          0          0          0
161              151.30     0          0          0          0
162              149.90     0          0          0          0
163              149.30     0          0          0          0
164              149.00     0          0          0          0
165              148.80     0          0          0          0
166              149.50     0          0          0          0
170              158.34     0          0          0          0
171              158.00     0          0          0          0
172              158.00     0          0          0          0
173              149.10     0          0          0          0
176              156.60     0          0          0          0
178              167.00     0          0          0          0
169              159.00     0          0          0          0
180              172.00     0          0          0          0
dummy            155.00     0          0          0          0
dummymh2         169.00     0          0          0          0
149a             162.00     0          0          0          0
182              104.00     0          0          0          0

[STORAGE]
;;Name           Elev       MaxDepth   InitDepth  Shape      Curve/Params
;;-------------- ---------- ---------- ---------- ---------- ----------
2                150.50     0          18.00      FUNCTIONAL 0 0          0
3                158.00     0          12.00      FUNCTIONAL 0 0          0
50               175.00     0          9.10       FUNCTIONAL 0 0          0
102              164.00     0          8.30       FUNCTIONAL 0 0          0
103              161.00     0          9.30       FUNCTIONAL 0 0          0
115              156.50     0          6.80       FUNCTIONAL 0 0          0
116              156.00     0          0          FUNCTIONAL 0 0          0
129              172.00     0          6.19       FUNCTIONAL 0 0          0
134              154.00     0          3.30       FUNCTIONAL 0 0          0
135              218.00     0          11.50      FUNCTIONAL 0 0          0
136              173.00     0          10.32      FUNCTIONAL 0 0          0
144              191.50     0          9.50       FUNCTIONAL 0 0          0
167              172.00     0          0          FUNCTIONAL 0 0          0
168              170.00     0          3.00       FUNCTIONAL 0 0          0
174              171.90     0          0          FUNCTIONAL 0 0          0
175              164.00     0          3.30       FUNCTIONAL 0 0          0
177              166.00     0          3.60       FUNCTIONAL 0 0          0
179              178.00     0          0          FUNCTIONAL 0 0          0
181              176.00     0          0          FUNCTIONAL 0 0          0

[CONDUITS]
;;Name           From             To               Length     Roughness  InOffset   OutOffset  InitFlow   MaxFlow
;;-------------- ---------------- ---------------- ---------- ---------- ---------- ---------- ---------- ----------
48RCP            OVFLW            Node_16301631    74.00      0.0140     122.50     122.00     0          0
4-1              ?                Node_16331630    196.50     0          136.80     130.00     0          0
18"rcp           8"pvc            Node_16341633    18.50      0          148.00     146.80     0          0
6-5              ?                Node_16351634    27.00      0          144.50     144.20     0          0
7-5              ?                Node_16361634    168.00     0          142.90     142.60     0          0
8-7              ?                Node_16371636    167.00     0          143.20     142.90     0          0
9-8              ?                Node_16381637    338.00     0          143.80     143.20     0          0
10-9             ?                Node_16391638    253.00     0          144.20     143.80     0          0
11-10            ?                Node_16401639    51.00      0          146.50     146.20     0          0
12-10            ?                Node_16411639    396.00     0          145.60     144.70     0          0
13-12            ?                Node_16421641    101.00     0          145.80     145.60     0          0
14-13            ?                Node_16431642    354.00     0          147.20     146.30     0          0
15-14            ?                Node_16441643    355.00     0          148.10     147.20     0          0
16-17            ?                Node_16451646    49.00      0          150.20     149.90     0          0
17-15            ?                Node_16461644    299.00     0          148.90     148.10     0          0
18-17            ?                Node_16471646    26.00      0          149.30     148.90     0          0
19-18            ?                Node_16481647    25.00      0          150.70     150.30     0          0
5-20             ?                Node_16341649    263.00     0          141.60     141.30     0          0
20-21            ?                Node_16491650    358.00     0          141.30     141.00     0          0
21-22            ?                Node_16501651    310.00     0          141.00     140.60     0          0
22-23            ?                Node_16511652    95.00      0          140.60     140.50     0          0
23-24            ?                Node_16521653    140.00     0          140.50     140.30     0          0
24-25            ?                Node_16531654    124.00     0          140.30     140.20     0          0
25-26            ?                Node_16541655    200.00     0          140.20     140.00     0          0
3-26             ?                Node_16321655    69.00      0.0140     140.05     140.00     0          0
28-3             ?                Node_16571632    101.00     0.0140     137.00     136.50     0          0
27-28            ?                Node_16561657    86.00      0          139.20     139.00     0          0
29-27            ?                Node_16581656    326.00     0.0140     140.10     139.20     0          0
30-29            ?                Node_16591658    321.00     0          142.10     140.60     0          0
31-30            ?                Node_16601659    309.00     0          143.20     142.10     0          0
34-31            ?                Node_16631660    25.00      0          145.50     145.40     0          0
35-34            ?                Node_16641663    22.00      0          145.60     145.50     0          0
32-33            ?                Node_16611662    65.00      0          154.00     153.70     0          0
33-3             ?                Node_16621632    100.00     0          152.50     152.00     0          0
36-33            ?                Node_16651662    28.00      0          152.70     152.50     0          0
37-36            ?                Node_16661665    28.00      0          152.90     152.70     0          0
38-37            ?                Node_16671666    307.00     0          155.50     152.90     0          0
39-38            ?                Node_16681667    347.00     0          157.90     156.00     0          0
40-39            ?                Node_16691668    316.00     0          159.80     157.90     0          0
41-40            ?                Node_16701669    349.00     0          161.20     159.80     0          0
42-41            ?                Node_16711670    367.00     0          162.70     161.20     0          0
43-42            ?                Node_16721671    382.00     0          165.40     163.20     0          0
44-43            ?                Node_16731672    31.00      0          165.70     165.40     0          0
45-44            ?                Node_16741673    49.00      0          166.10     165.70     0          0
46-45            ?                Node_16751674    109.00     0          166.80     166.10     0          0
47-46            ?                Node_16761675    393.00     0          168.50     166.80     0          0
48-47            ?                Node_16771676    396.00     0          176.00     168.50     0          0
49-48            ?                Node_16781677    357.00     0          183.50     176.00     0          0
51-50            Node_50          Node_16801679    62.00      0          162.12     161.50     0          0
56-51            Node_51          Node_16851680    136.00     0          166.34     165.64     0          0
52-53            Node_53          Node_16811682    77.00      0          163.00     162.70     0          0
53-54            Node_54          Node_16821683    51.00      0          162.70     162.50     0          0
54-55            Node_55          Node_16831684    127.00     0          162.50     162.00     0          0
55-57            Node_57          Node_16841686    305.00     0          161.80     156.80     0          0
140-57           Node_57          Node_17691686    63.00      0          162.70     162.20     0          0
57-58            Node_58          Node_16861687    132.00     0          156.50     155.40     0          0
58-59            Node_59          Node_16871688    159.00     0          155.30     153.80     0          0
59-60            Node_60          Node_16881689    303.00     0          153.30     152.40     0          0
60-61            Node_61          Node_16891690    308.00     0          152.30     151.10     0          0
61-62            Node_62          Node_16901691    247.00     0          151.00     149.50     0          0
62-64            Node_64          Node_16911693    65.00      0          142.20     141.90     0          0
63-2             Node_63          Node_16921631    610.00     0          136.00     122.50     0          0
65-64            Node_64          Node_16941693    179.00     0          136.90     136.00     0          0
64-2             Node_64          Node_16931631    527.00     0          133.90     122.50     0          0
66-65            Node_65          Node_16951694    303.00     0          138.90     137.00     0          0
67-66            Node_66          Node_16961695    308.00     0          140.20     139.30     0          0
101-67           Node_67          Node_17301696    32.00      0          147.60     147.00     0          0
100-101          Node_101         Node_17291730    28.00      0          148.00     147.60     0          0
68-67            Node_67          Node_16971696    172.00     0          141.30     140.40     0          0
69-68            Node_68          Node_16981697    133.00     0          141.80     141.40     0          0
70-69            Node_69          Node_16991698    290.00     0          143.60     142.60     0          0
71-70            Node_70          Node_17001699    291.00     0          144.50     144.00     0          0
72-71            Node_71          Node_17011700    292.00     0          146.80     144.50     0          0
73-72            Node_72          Node_17021701    293.00     0          148.30     146.80     0          0
74-73            Node_73          Node_17031702    210.00     0          150.00     148.30     0          0
75-74            Node_74          Node_17041703    85.00      0          151.90     150.60     0          0
76-75            Node_75          Node_17051704    296.00     0          153.90     152.60     0          0
77-76            Node_76          Node_17061705    293.00     0          157.70     155.90     0          0
78-77            Node_77          Node_17071706    295.00     0          161.50     160.10     0          0
79-78            Node_78          Node_17081707    313.00     0          168.50     166.40     0          0
80-79            Node_79          Node_17091708    259.00     0          175.30     173.90     0          0
81-80            Node_80          Node_17101709    300.00     0          185.20     177.80     0          0
82-81            Node_81          Node_17111710    293.00     0          192.20     188.10     0          0
84-82            Node_82          Node_17131711    134.00     0          193.90     193.20     0          0
148-84           Node_84          Node_17771713    54.00      0          194.30     193.90     0          0
83-82            Node_82          Node_17121711    293.00     0          202.60     197.00     0          0
85-86            Node_86          Node_17141715    190.00     0          210.83     200.00     0          0
128-86           Node_86          Node_17571715    217.00     0          202.90     200.34     0          0
86-87            Node_87          Node_17151716    81.00      0          200.00     195.43     0          0
87-88            Node_88          Node_17161717    231.00     0          195.34     184.26     0          0
88-89            Node_89          Node_17171718    301.00     0          183.20     179.00     0          0
89-90            Node_90          Node_17181719    267.00     0          177.98     174.20     0          0
90-91            Node_91          Node_17191720    311.00     0          173.52     169.80     0          0
91-92            Node_92          Node_17201721    231.00     0          168.80     166.28     0          0
133-92           Node_92          Node_17621721    44.00      0.0108     166.60     166.30     0          0
92-93            Node_93          Node_17211722    316.00     0          166.13     164.00     0          0
93-94            Node_94          Node_17221723    236.00     0          164.00     162.85     0          0
94-96            Node_96          Node_17231725    326.00     0          162.85     161.26     0          0
96-97            Node_97          Node_17251726    65.00      0          162.05     161.65     0          0
97-98            Node_98          Node_17261727    249.00     0          161.35     159.70     0          0
98-99            Node_99          Node_17271728    51.00      0          159.70     159.36     0          0
99-100           Node_100         Node_17281729    89.00      0          159.30     148.00     0          0
150-103          Node_103         Node_17791732    102.00     0          148.28     147.90     0          0
151-150          Node_150         Node_17801779    84.00      0          149.73     149.28     0          0
152-151          Node_151         Node_17811780    115.00     0          150.28     149.73     0          0
153-152          Node_152         Node_17821781    164.00     0          151.03     150.28     0          0
154-153          Node_153         Node_17831782    120.00     0          151.63     151.03     0          0
155-154          Node_154         Node_17841783    306.00     0          153.13     151.63     0          0
155-169          Node_169         Node_17841807    41.00      0.0297     157.40     156.20     0          0
169-170          Node_170         Node_18071798    221.00     0          155.83     155.00     0          0
170-71           Node_71          Node_17981700    98.00      0.0140     155.00     154.20     0          0
104-134          Node_134         Node_17331763    126.00     0          148.60     148.40     0          0
105-104          Node_104         Node_17341733    177.00     0          148.98     148.60     0          0
106-105          Node_105         Node_17351734    49.00      0          149.06     148.98     0          0
107-106          Node_106         Node_17361735    57.00      0          149.30     149.06     0          0
118-106          Node_106         Node_17471735    49.00      0          149.20     149.06     0          0
119-118          Node_118         Node_17481747    18.00      0          149.26     149.20     0          0
117-118          Node_118         Node_17461747    137.00     0          149.47     149.20     0          0
120-119          Node_119         Node_17491748    125.00     0          149.35     149.26     0          0
108-107          Node_107         Node_17371736    200.00     0          150.36     149.30     0          0
109-108          Node_108         Node_17381737    306.00     0          153.00     151.50     0          0
110-109          Node_109         Node_17391738    455.00     0          159.00     153.48     0          0
111-110          Node_110         Node_17401739    147.00     0          161.50     159.82     0          0
112-2            Node_112         Node_17411631    15.00      0          140.10     140.00     0          0
113-112          Node_112         Node_17421741    61.00      0          140.25     140.10     0          0
113-114          Node_114         Node_17421743    134.00     0          140.35     140.15     0          0
114-156          Node_156         Node_17431785    309.00     0          140.15     139.85     0          0
116-117          Node_117         Node_17451746    104.00     0          149.64     149.47     0          0
121-120          Node_120         Node_17501749    259.00     0          149.51     149.35     0          0
122-121          Node_121         Node_17511750    300.00     0          149.70     149.51     0          0
123-122          Node_122         Node_17521751    294.00     0          149.89     149.70     0          0
124-123          Node_123         Node_17531752    299.00     0          150.08     149.89     0          0
126-125          Node_125         Node_17551754    267.00     0          150.25     150.08     0          0
127-126          Node_126         Node_17561755    79.00      0          151.00     150.25     0          0
131-129          Node_129         Node_17601758    350.00     0          166.02     161.50     0          0
131-132          Node_132         Node_17601761    127.00     0.0108     167.59     167.06     0          0
132-133          Node_133         Node_17611762    197.00     0          167.10     166.67     0          0
134-4            Node_134         Node_17631633    286.00     0          146.00     144.00     0          0
142-135          Node_135         Node_17711764    36.00      0.0140     205.64     205.00     0          0
143-142          Node_142         Node_17721771    98.00      0          211.92     210.47     0          0
144-145          Node_145         Node_17731774    140.00     0.0140     188.00     185.10     0          0
145-146          Node_146         Node_17741775    122.00     0          185.10     184.74     0          0
146-180          Node_180         Node_17751809    1180.00    0.0650     184.74     166.00     0          0
180-171          Node_171         Node_18091799    1400.00    0.0650     166.00     152.00     0          0
156-157          Node_157         Node_17851786    92.00      0.0140     139.85     139.75     0          0
157-158          Node_158         Node_17861787    90.00      0          139.75     139.65     0          0
158-159          Node_159         Node_17871788    213.00     0          139.65     139.42     0          0
159-160          Node_160         Node_17881789    267.00     0          139.42     139.17     0          0
160-161          Node_161         Node_17891790    281.00     0          139.17     138.91     0          0
161-162          Node_162         Node_17901791    330.00     0          138.91     138.54     0          0
162-163          Node_163         Node_17911792    320.00     0          138.54     138.29     0          0
163-173          Node_173         Node_17921801    79.00      0          138.18     138.07     0          0
164-165          Node_165         Node_17931794    258.00     0          137.11     135.55     0          0
165-166          Node_166         Node_17941795    193.00     0          135.55     134.25     0          0
173-164          Node_164         Node_18011793    149.00     0          138.07     137.11     0          0
141-92           Node_92          Node_17701721    46.00      0          168.85     168.40     0          0
136-141          Node_141         Node_17651770    70.00      0.0140     169.82     169.68     0          0