;; SWMM5 .inp converted from XPSWMM .xp file
;; Generated by XPSWMM Card Reader
;; Source format: XP_CARD | Original title: EXTRAN RUN - 100YR / 24HR  -  EXISTING CONDITIONS

[TITLE]
;;Project Title/Notes
EXTRAN RUN - 100YR / 24HR  -  EXISTING CONDITIONS

[OPTIONS]
FLOW_UNITS           CFS
INFILTRATION         HORTON
FLOW_ROUTING         DYNWAVE
LINK_OFFSETS         DEPTH
MIN_SLOPE            0.0
ALLOW_PONDING        NO
SKIP_STEADY_STATE    NO
ROUTING_STEP         00:00:02
VARIABLE_STEP        0.75
INERTIAL_DAMPING     PARTIAL
NORMAL_FLOW_LIMITED  BOTH
MAX_TRIALS           4
HEAD_TOLERANCE       0.0033

[JUNCTIONS]
;;Name           Elev       MaxDepth   InitDepth  SurDepth   Aponded
;;-------------- ---------- ---------- ---------- ---------- ----------
0                122.79     0          0.96       0          0
0                124.75     0          0          0          0
0                122.77     0          0.98       0          0
0                120.30     0          0          0          0
0                121.00     0          0          0          0
0                119.00     0          0          0          0
0                126.80     0          0          0          0
0                119.50     0          2.20       0          0
0                125.40     0          0          0          0
0                128.49     0          0          0          0
0                128.50     0          0          0          0
0                130.00     0          0          0          0
0                129.01     0          0          0          0
0                124.30     0          0          0          0
0                122.50     0          0          0          0
0                127.00     0          0          0          0
0                129.04     0          0          0          0
0                0          0          0          0          0
0                0          0          0          0          0
0                127.00     0          0          0          0
0                124.50     0          0          0          0
0                0          0          0          0          0
0                126.00     0          0          0          0
0                121.40     0          0          0          0
0                124.30     0          0          0          0
0                120.00     0          0          0          0
0                127.00     0          0          0          0
0                119.30     0          0.20       0          0
0                119.20     0          0          0          0
0                119.30     0          0          0          0
0                117.80     0          1.80       0          0
0                114.00     0          3.50       0          0
0                118.40     0          1.20       0          0
0                113.88     0          3.98       0          0
0                114.00     0          4.20       0          0
0                114.00     0          4.50       0          0
0                111.70     0          1.10       0          0
0                112.00     0          9.55       0          0
0                116.00     0          2.80       0          0
0                123.10     0          0          0          0
0                119.70     0          0          0          0
0                120.00     0          0          0          0
0                126.40     0          0          0          0
0                129.00     0          0          0          0
0                129.50     0          0          0          0
0                129.50     0          0          0          0
0                129.05     0          0          0          0
0                129.03     0          0          0          0
0                129.02     0          0          0          0
0                129.01     0          0          0          0
0                129.00     0          0          0          0
0                130.00     0          0          0          0
0                130.00     0          0          0          0
0                130.00     0          0          0          0
0                127.70     0          0          0          0
0                126.50     0          0          0          0
0                125.30     0          0          0          0
0                125.30     0          0          0          0
0                125.65     0          0          0          0
0                121.75     0          0.50       0          0
0                121.56     0          0.69       0          0
0                121.54     0          0.71       0          0
0                122.75     0          1.00       0          0
0                127.90     0          0          0          0
0                123.00     0          0          0          0
0                120.70     0          0          0          0
0                119.50     0          0          0          0
0                125.90     0          0          0          0
0                125.50     0          0          0          0
0                124.60     0          0          0          0
0                125.00     0          0          0          0
0                124.60     0          0          0          0
0                124.10     0          0          0          0
0                121.80     0          0          0          0
0                124.00     0          0          0          0
0                123.90     0          0          0          0
0                122.60     0          0          0          0
0                128.00     0          0          0          0
0                127.00     0          0          0          0
0                119.60     0          0          0          0
0                119.10     0          0.60       0          0
0                120.00     0          2.80       0          0
0                118.00     0          2.00       0          0
0                116.00     0          4.90       0          0
0                119.30     0          0          0          0
0                118.50     0          1.00       0          0
0                118.00     0          1.10       0          0
0                122.00     0          0          0          0
0                120.00     0          0          0          0
0                118.10     0          0          0          0
0                119.10     0          0          0          0
0                118.10     0          1.10       0          0
0                120.00     0          0.60       0          0
0                113.30     0          3.90       0          0
0                113.44     0          3.94       0          0
0                113.46     0          3.96       0          0
0                113.60     0          4.00       0          0
0                122.50     0          0          0          0
0                121.50     0          0          0          0
0                119.50     0          0          0          0
0                119.00     0          0          0          0
0                116.70     0          0          0          0
0                19.35      0          9.65       0          0
0                19.35      0          9.65       0          0

[STORAGE]
;;Name           Elev       MaxDepth   InitDepth  Shape      Curve/Params
;;-------------- ---------- ---------- ---------- ---------- ----------
0                124.50     0          0          FUNCTIONAL 0 0          0
0                123.10     0          0          FUNCTIONAL 0 0          0
0                123.00     0          0          FUNCTIONAL 0 0          0
0                123.00     0          0          FUNCTIONAL 0 0          0
0                122.00     0          0          FUNCTIONAL 0 0          0
0                122.00     0          0          FUNCTIONAL 0 0          0
0                118.00     0          0          FUNCTIONAL 0 0          0
0                119.00     0          3.92       FUNCTIONAL 0 0          0
0                116.00     0          0          FUNCTIONAL 0 0          0
0                114.00     0          0.50       FUNCTIONAL 0 0          0
0                117.20     0          1.50       FUNCTIONAL 0 0          0
0                126.00     0          0          FUNCTIONAL 0 0          0
0                131.00     0          0          FUNCTIONAL 0 0          0
0                129.00     0          0          FUNCTIONAL 0 0          0
0                128.00     0          0          FUNCTIONAL 0 0          0
0                128.00     0          0          FUNCTIONAL 0 0          0
0                127.00     0          0          FUNCTIONAL 0 0          0
0                125.00     0          0          FUNCTIONAL 0 0          0
0                127.00     0          0          FUNCTIONAL 0 0          0
0                129.00     0          0          FUNCTIONAL 0 0          0
0                128.00     0          0          FUNCTIONAL 0 0          0
0                127.00     0          0          FUNCTIONAL 0 0          0
0                129.00     0          0          FUNCTIONAL 0 0          0
0                126.00     0          0          FUNCTIONAL 0 0          0
0                119.00     0          0          FUNCTIONAL 0 0          0
0                127.00     0          0          FUNCTIONAL 0 0          0
0                127.00     0          0          FUNCTIONAL 0 0          0
0                125.00     0          0          FUNCTIONAL 0 0          0
0                124.00     0          0          FUNCTIONAL 0 0          0
0                121.00     0          0          FUNCTIONAL 0 0          0
0                121.00     0          0          FUNCTIONAL 0 0          0
0                117.00     0          0.50       FUNCTIONAL 0 0          0
0                124.00     0          0.20       FUNCTIONAL 0 0          0
0                113.00     0          4.30       FUNCTIONAL 0 0          0
0                114.00     0          4.00       FUNCTIONAL 0 0          0
0                112.00     0          1.00       FUNCTIONAL 0 0          0
0                121.00     0          1.40       FUNCTIONAL 0 0          0
0                114.00     0          1.80       FUNCTIONAL 0 0          0
0                112.00     0          3.80       FUNCTIONAL 0 0          0
0                131.00     0          0          FUNCTIONAL 0 0          0
0                134.00     0          0          FUNCTIONAL 0 0          0
0                129.20     0          0          FUNCTIONAL 0 0          0
0                131.00     0          0          FUNCTIONAL 0 0          0
0                126.00     0          0          FUNCTIONAL 0 0          0
0                125.00     0          0          FUNCTIONAL 0 0          0
0                126.00     0          0.90       FUNCTIONAL 0 0          0
0                127.00     0          0          FUNCTIONAL 0 0          0
0                126.00     0          0          FUNCTIONAL 0 0          0
0                125.00     0          0          FUNCTIONAL 0 0          0
0                128.00     0          0          FUNCTIONAL 0 0          0
0                119.80     0          0          FUNCTIONAL 0 0          0
0                119.00     0          0          FUNCTIONAL 0 0          0
0                122.00     0          0          FUNCTIONAL 0 0          0
0                113.00     0          3.80       FUNCTIONAL 0 0          0
0                113.00     0          9.30       FUNCTIONAL 0 0          0
0                119.00     0          0          FUNCTIONAL 0 0          0

[CONDUITS]
;;Name           From             To               Length     Roughness  InOffset   OutOffset  InitFlow   MaxFlow
;;-------------- ---------------- ---------------- ---------- ---------- ---------- ---------- ---------- ----------
287              0                0                500.00     0.0350     17.00      16.50      0          0
288              0                0                600.00     0.0500     16.50      16.50      0          0
1102             2102             0                250.00     0.0169     0          0          0          0
290              0                0                700.00     0.0500     16.50      16.01      0          0
1145             2145             0                400.00     0.0270     0          0.50       0          0
224              0                0                700.00     0.0500     15.50      15.49      0          0
297              0                0                1000.00    0.0500     14.20      10.80      0          0
300              0                0                500.00     0.0350     17.05      17.01      0          0
300              0                0                1100.00    0.0500     17.05      17.04      0          0
1109             2109             0                400.00     0.0240     0.50       0.50       0          0
303              0                0                450.00     0.0500     17.03      17.02      0          0
307              0                0                400.00     0.0170     17.01      17.00      0          0
308              0                0                400.00     0.0240     17.00      15.20      0          0
1120             2120             3120             240.00     0.0152     0          0          0          0
1121             2121             3121             430.00     0.0150     0          0          0          0
1122             2122             3122             410.00     0.0152     0          0          0          0
1123             2123             3123             330.00     0.0158     0          0          0          0
1124             2124             0                400.00     0.0200     0          0          0          0
228              0                0                370.00     0.0162     14.60      13.90      0          0
1133             2133             0                630.00     0.0148     0          0          0          0
1139             2139             3139             400.00     0.0210     0          0          0          0
1143             2143             3143             650.00     0.0150     0          1.00       0          0
219              0                0                700.00     0.0500     10.80      10.50      0          0
1148             2148             3148             400.00     0.0290     0.60       0.09       0          0
331              0                0                900.00     0.0500     10.80      10.30      0          0
222              0                0                200.00     0.0141     16.50      16.30      0          0
333              0                0                620.00     0.0500     10.30      9.90       0          0
218              0                0                500.00     0.0168     11.00      10.00      0          0
338              0                0                200.00     0.0146     10.00      9.90       0          0
336              0                0                500.00     0.0500     9.90       9.00       0          0
342              0                0                250.00     0.0150     9.50       9.00       0          0
1174             2174             3174             300.00     0.0151     0          0          0          0
1176             2176             3176             520.00     0.0189     0          0          0          0
345              0                0                500.00     0.0350     8.00       7.81       0          0
1177             2177             0                400.00     0.0204     0          0          0          0
349              0                0                500.00     0.0350     7.79       7.54       0          0
352              0                0                200.00     0.0127     7.60       7.54       0          0
201              0                0                600.00     0.0350     7.54       7.52       0          0
204              0                0                600.00     0.0350     7.52       7.50       0          0
359              0                0                200.00     0.0162     14.00      13.70      0          0
357              0                0                2000.00    0.0500     13.70      8.40       0          0
241              0                0                280.00     0.0223     8.60       8.40       0          0
284              0                0                750.00     0.0500     8.40       7.51       0          0
276              0                0                200.00     0.0500     7.51       7.50       0          0
1396             2396             0                200.00     0.0258     0          0          0          0
368              0                0                600.00     0.0500     7.30       5.90       0          0
277              0                0                400.00     0.0500     5.90       4.80       0          0
239              0                0                200.00     0.0179     13.80      13.40      0          0
373              0                0                1100.00    0.0500     13.40      11.50      0          0
245              0                0                330.00     0.0202     13.10      12.30      0          0
246              0                0                410.00     0.0199     12.30      11.50      0          0
379              0                0                200.00     0.0153     11.90      11.50      0          0
375              0                0                550.00     0.0500     11.50      10.00      0          0
247              0                0                470.00     0.0193     10.80      10.40      0          0
250              0                0                200.00     0.0232     10.40      10.20      0          0
384              0                0                200.00     0.0217     10.20      10.10      0          0
386              0                0                200.00     0.0217     10.10      10.00      0          0
1352             2352             0                337.00     0.0234     0          0          0          0
1369             2369             0                755.00     0.0178     0          0          0          0
389              0                0                550.00     0.0500     9.30       7.00       0          0
1374             2374             0                250.00     0.0255     1.41       0          0          0
394              0                0                300.00     0.0500     8.40       8.39       0          0
1375             2375             0                200.00     0.0285     0          0          0          0
398              0                0                800.00     0.0500     7.80       6.60       0          0
255              0                0                1350.00    0.0133     9.30       6.60       0          0
251              0                0                1200.00    0.0500     6.60       4.80       0          0
371              0                0                400.00     0.0500     4.80       3.80       0          0
256              0                0                300.00     0.0500     3.80       2.80       0          0
278              0                0                450.00     0.0500     2.80       1.40       0          0
1415             2415             0                900.00     0.0135     0          0          0          0
1420             2420             0                300.00     0.0162     0          0          0          0
1430             2430             0                400.00     0.0152     0          2.11       0          0
232              0                0                270.00     0.0174     11.10      11.00      0          0
411              ?                0                520.00     0.0180     11.00      10.10      0          0
235              ?                0                300.00     0.0199     10.10      9.90       0          0
257              0                0                200.00     0.0248     9.90       6.90       0          0
248              0                0                300.00     0.0228     7.30       6.20       0          0
253              0                0                450.00     0.0211     6.20       5.40       0          0
254              0                0                430.00     0.0213     5.40       5.10       0          0
259              0                0                320.00     0.0231     5.10       4.80       0          0
261              0                0                400.00     0.0500     4.80       4.70       0          0
260              0                0                1100.00    0.0500     4.70       3.10       0          0
1453             1455             1458             300.00     0.0146     0          0          0          0
1457             2457             0                200.00     0.0135     0          0          0          0
421              0                0                2000.00    0.0500     3.10       2.20       0          0
1461             2461             0                200.00     0.0248     0          0          0          0
279              0                0                400.00     0.0500     1.40       0          0          0
1466             2466             0                250.00     0.0250     0.81       0          0          0
432              0                0                550.00     0.0500     0.80       0          0          0
280              0                0                300.00     0.0150     1.00       0          0          0
275              0                0                600.00     0.0500     0          -0.70      0          0
264              0                0                800.00     0.0500     -0.70      -1.50      0          0
1484             2484             3484             204.00     0.0284     0          0          0          0
221              0                0                700.00     0.0350     9.40       8.30       0          0
233              0                0                1200.00    0.0350     8.30       6.50       0          0
234              0                0                250.00     0.0350     3.70       3.30       0          0
1501             2501             0                500.00     0.0179     0          0          0          0
258              0                0                750.00     0.0500     2.60       1.80       0          0
265              0                0                400.00     0.0165     2.60       1.80       0          0
446              0                0                200.00     0.0461     1.80       1.70       0          0
1509             2509             0                200.00     0.0226     0          0          0          0
262              0                0                360.00     0.0163     2.30       1.60       0          0
266              0                0                750.00     0.0500     1.60       1.00       0          0
1515             2515             0                250.00     0.0192     0.31       0          0          0
455              0                0                200.00     0.0157     8.00       7.20       0          0
456              0                0                278.00     0.0173     7.20       5.10       0          0
458              0                0                200.00     0.0171     5.10       4.70       0          0
460              0                0                376.00     0.0190     4.70       4.00       0          0
462              0                0                336.00     0.0195     4.00       1.70       0          0
464              0                0                200.00     0.0204     1.70       1.30       0          0
217              0                0                1250.00    0.0500     2.50       -1.18      0          0
206              0                0                350.00     0.0149     10.40      10.00      0          0
207              0                0                368.00     0.0155     10.00      9.40       0          0
208              0                0                410.00     0.0187     9.40       5.60       0          0
206              0                0                396.00     0.0146     8.00       6.70       0          0
210              0                0                350.00     0.0149     6.70       5.60       0          0
209              0                0                1000.00    0.0177     5.60       3.60       0          0
210              0                0                420.00     0.0145     4.60       3.60       0          0
211              0                0                700.00     0.0188     3.60       2.20       0          0
212              0                0                250.00     0.0160     5.00       4.50       0          0
475              0                0                850.00     0.0188     2.20       0.60       0          0
212              0                0                250.00     0.0160     5.00       4.50       0          0
1538             2538             0                350.00     0.0232     0          0          0          0
480              0                0                400.00     0.0500     -1.10      -1.14      0          0
214              0                0                200.00     0.0158     -1.12      -1.14      0          0
482              0                0                400.00     0.0500     -1.14      -1.16      0          0
216              0                0                250.00     0.0160     4.00       3.34       0          0
485              0                0                600.00     0.0500     -1.16      -1.18      0          0
267              0                0                400.00     0.0500     -1.18      -1.20      0          0
216              0                0                270.00     0.0157     2.30       1.80       0          0
489              0                0                850.00     0.0500     -1.20      -1.40      0          0
271              0                0                270.00     0.0157     -0.90      -1.40      0          0
268              0                0                1000.00    0.0500     -1.40      -1.70      0          0
271              0                0                270.00     0.0157     -1.20      -1.70      0          0
496              0                0                300.00     0.0140     -1.00      -1.70      0          0
270              0                0                1500.00    0.0500     -1.70      -2.10      0          0
438              0                0                700.00     0.0500     -2.10      -6.50      0          0
281              0                0                200.00     0.0200     -1.00      -6.50      0          0
499              0                0                1750.00    0.0500     -6.50      -6.75      0          0
204              0                0                400.00     0.0170     11.52      12.00      0          0
503              0                0                300.00     0.0500     12.00      14.50      0          0
505              0                0                400.00     0.0170     14.50      13.50      0          0
507              0                0                650.00     0.0500     11.00      10.40      0          0
509              0                0                300.00     0.0150     10.40      10.00      0          0
205              0                0                1300.00    0.0500     10.00      8.70       0          0
1567             2567             0                400.00     0.0240     0          0          0          0
213              0                0                2350.00    0.0400     8.70       6.60       0          0
1570             2570             3570             400.00     0.0240     0          0          0          0
516              0                0                1500.00    0.0350     6.50       1.80       0          0
1573             2573             3573             400.00     0.0240     0          0          0          0
272              0                0                3200.00    0.0350     1.70       0.95       0          0
273              0                0                208.00     0.0391     -6.75      -6.85      0          0
273              0                0                208.00     0.0391     -6.75      -6.85      0          0
249              0                0                33.00      0.0140     0          0          0          0
243              0                0                33.00      0.0140     0          0          0          0
244              0                0                33.00      0.0140     0          0          0          0

[ORIFICES]
;;Name           From             To               Type       Offset     Qcoeff     Gated    CloseTime
;;-------------- ---------------- ---------------- ---------- ---------- ---------- -------- ----------
8846             0                0                SIDE       36.00      0.650      NO       0
305              0                0                SIDE       0          0.650      NO       0

[WEIRS]
;;Name           From             To               Type       CrestHt    Qcoeff     Gated    EndCon   EndCoeff   Surcharge
;;-------------- ---------------- ---------------- ---------- ---------- ---------- -------- -------- ---------- ----------
8833             0                0                TRANSVERSE 17.10      1.840      NO       0        0          YES
8847             0                0                TRANSVERSE 16.00      1.840      NO       0        0          YES
9807             0                0                TRANSVERSE 23.59      1.840      NO       0        0          YES
1125             2125             1137             TRANSVERSE 23.50      1.840      NO       0        0          YES