;; SWMM5 .inp converted from XPSWMM .xp file
;; Generated by XPSWMM Card Reader
;; Source format: XP_CARD | Original title: Upper Waco Creek Sub-Basin XP-SWMM

[TITLE]
;;Project Title/Notes
Upper Waco Creek Sub-Basin XP-SWMM

[OPTIONS]
FLOW_UNITS           CFS
INFILTRATION         HORTON
FLOW_ROUTING         DYNWAVE
LINK_OFFSETS         DEPTH
MIN_SLOPE            0.0
ALLOW_PONDING        NO
SKIP_STEADY_STATE    NO
ROUTING_STEP         00:00:900
VARIABLE_STEP        0.75
INERTIAL_DAMPING     PARTIAL
NORMAL_FLOW_LIMITED  BOTH
MAX_TRIALS           50
HEAD_TOLERANCE       0.0033

[JUNCTIONS]
;;Name           Elev       MaxDepth   InitDepth  SurDepth   Aponded
;;-------------- ---------- ---------- ---------- ---------- ----------
97-2-042         618.80     0          0          0          0
97-2-042A        618.30     0          0          0          0
97-2-039         619.40     0          0          0          0
97-2-040         619.60     0          0          0          0
97-2-041         622.40     0          0          0          0
96-3-017         622.90     0          0          0          0
96-3-016         618.02     0          0          0          0
96-3-015         613.13     0          0          0          0
96-3-015A        608.25     0          0          0          0
96-3-013         603.37     0          0          0          0
96-3-012         598.48     0          0          0          0
96-3-006         593.60     0          0          0          0
96-3-005         594.50     0          0          0          0
96-2-018         593.80     0          0          0          0
96-2-017         587.70     0          0          0          0
96-2-017A        581.80     0          0          0          0
96-2-016         579.50     0          0          0          0
96-2-015         579.20     0          0          0          0
96-2-012         572.59     0          0          0          0
96-2-010         567.70     0          0          0          0
96-2-009         567.90     0          0          0          0
96-2-008         564.40     0          0          0          0
96-2-007         564.15     0          0          0          0
96-2-006         560.60     0          0          0          0
96-2-003         559.20     0          0          0          0
96-2-002         558.80     0          0          0          0
96-2-001         558.00     0          0          0          0
104-4-068        557.50     0          0          0          0
103-1-022        559.58     0          0          0          0
104-4-067        556.70     0          0          0          0
104-4-060        557.10     0          0          0          0
104-4-061        555.00     0          0          0          0
104-4-071        556.00     0          0          0          0
104-4-059        554.00     0          0          0          0
104-4-058        549.90     0          0          0          0
104-4-045        549.40     0          0          0          0
104-4-048        550.00     0          0          0          0
104-4-046        549.75     0          0          0          0
104-4-017        546.80     0          0          0          0
104-4-016        544.30     0          0          0          0
104-4-015        544.70     0          0          0          0
104-4-014        544.50     0          0          0          0
104-4-010        539.90     0          0          0          0
104-4-009        542.30     0          0          0          0
104-4-008        540.89     0          0          0          0
104-4-006        540.75     0          0          0          0
104-4-006A       541.20     0          0          0          0
104-4-006B       540.60     0          0          0          0
104-4-006C       541.80     0          0          0          0
104-4-006D       540.90     0          0          0          0
104-4-006E       541.50     0          0          0          0
104-4-006F       541.30     0          0          0          0
104-1-006G       541.20     0          0          0          0
104-1-006H       541.20     0          0          0          0
104-1-006I       537.40     0          0          0          0
104-2-027        533.80     0          0          0          0
104-2-026        533.20     0          0          0          0
104-1-023        535.14     0          0          0          0
104-2-025        530.50     0          0          0          0
104-2-016        524.20     0          0          0          0
104-2-015        525.30     0          0          0          0
104-2-014        522.50     0          0          0          0
104-2-013        523.00     0          0          0          0
104-2-012        519.70     0          0          0          0
104-2-005        518.40     0          0          0          0
105-3-030        514.30     0          0          0          0
105-3-031        512.00     0          0          0          0
105-3-033        511.40     0          0          0          0
105-3-034        508.50     0          0          0          0
105-3-032        511.70     0          0          0          0
105-3-035        508.30     0          0          0          0
105-3-039        506.40     0          0          0          0
105-4-026        504.80     0          0          0          0
105-4-027        504.00     0          0          0          0
105-4-028        499.40     0          0          0          0
105-4-012        495.80     0          0          0          0
105-4-012A       495.10     0          0          0          0
105-4-013        493.90     0          0          0          0
105-4-014        492.70     0          0          0          0
105-4-015        490.90     0          0          0          0
105-1-049        489.20     0          0          0          0
094-2-047        485.70     0          0          0          0
094-2-048        483.30     0          0          0          0
094-2-051        479.90     0          0          0          0
094-2-052        476.30     0          0          0          0
094-2-054        475.80     0          0          0          0
094-2-055        473.60     0          0          0          0
094-2-056        471.80     0          0          0          0
094-2-059        468.10     0          0          0          0
094-1-058        466.80     0          0          0          0
094-1-057        465.60     0          0          0          0
094-1-056        466.00     0          0          0          0
094-1-055        457.80     0          0          0          0
094-1-054        460.50     0          0          0          0
094-1-053        454.40     0          0          0          0
094-1-052        457.60     0          0          0          0
094-1-052A       453.70     0          0          0          0
094-1-069        448.50     0          0          0          0
094-1-068        445.00     0          0          0          0
094-1-067        445.10     0          0          0          0
083-2-019        437.30     0          0          0          0
083-2-018        439.90     0          0          0          0
094-1-041        450.50     0          0          0          0
083-2-008        447.00     0          0          0          0
083-2-009        450.00     0          0          0          0
083-2-010        447.50     0          0          0          0
083-2-016        440.00     0          0          0          0
083-2-017        440.00     0          0          0          0
094-1-067A       439.80     0          0          0          0
083-2-020        442.60     0          0          0          0
083-2-021        437.80     0          0          0          0
083-2-022        438.40     0          0          0          0
083-2-023        438.20     0          0          0          0
084-3-091        436.70     0          0          0          0
084-4-048        432.40     0          0          0          0
084-3-091A       432.60     0          0          0          0
084-4-047        428.80     0          0          0          0
084-4-046        425.60     0          0          0          0
084-4-045        424.90     0          0          0          0
084-4-044        424.30     0          0          0          0
084-4-043        425.00     0          0          0          0
084-4-042        423.90     0          0          0          0
084-4-041        420.40     0          0          0          0
084-4-040        421.20     0          0          0          0
084-4-037        420.30     0          0          0          0
084-4-036        418.80     0          0          0          0
084-4-027        417.50     0          0          0          0
084-4-028        416.30     0          0          0          0
084-4-029        415.70     0          0          0          0
071-2-046        414.90     0          0          0          0
071-2-045        413.80     0          0          0          0
071-2-044        413.40     0          0          0          0
071-2-043        413.00     0          0          0          0
071-2-042        411.10     0          0          0          0
071-2-041        410.00     0          0          0          0
071-2-040        409.50     0          0          0          0
071-4-007        430.30     0          0          0          0
071-4-007A       422.10     0          0          0          0
071-4-005        417.40     0          0          0          0
071-4-001        413.30     0          0          0          0
071-4-001A       411.90     0          0          0          0
071-3-016        411.80     0          0          0          0
071-2-056        412.10     0          0          0          0
071-2-055        413.00     0          0          0          0
071-2-054        413.00     0          0          0          0
071-2-053        413.00     0          0          0          0
071-2-052        412.30     0          0          0          0
071-2-051        411.80     0          0          0          0
083-2-033        447.50     0          0          0          0
083-2-033A       448.70     0          0          0          0
083-2-032        442.80     0          0          0          0
084-3-092        439.10     0          0          0          0
084-3-093        438.20     0          0          0          0
084-4-073        437.80     0          0          0          0
084-4-072        437.10     0          0          0          0
084-4-071        435.90     0          0          0          0
084-4-062        434.00     0          0          0          0
084-4-067        445.30     0          0          0          0
084-4-064        437.50     0          0          0          0
084-4-064A       436.00     0          0          0          0
084-4-056        432.20     0          0          0          0
084-4-081        431.80     0          0          0          0
118-2-005        601.30     0          0          0          0
118-2-004        598.10     0          0          0          0
118-2-003        592.60     0          0          0          0
118-2-002        586.70     0          0          0          0
118-2-001        584.30     0          0          0          0
117-4-012        583.70     0          0          0          0
117-4-011        583.80     0          0          0          0
117-4-010        581.10     0          0          0          0
117-4-009        574.40     0          0          0          0
117-4-001        566.30     0          0          0          0
117-4-017        558.70     0          0          0          0
117-4-016        557.80     0          0          0          0
117-4-015        554.60     0          0          0          0
117-4-014        554.40     0          0          0          0
117-4-0013       551.70     0          0          0          0
104-3-001        546.40     0          0          0          0
104-2-020        535.70     0          0          0          0
104-2-019        528.10     0          0          0          0
104-2-018        527.70     0          0          0          0
104-2-017        522.00     0          0          0          0
96-3-049         597.00     0          0          0          0
96-4-030         589.00     0          0          0          0
96-4-029         588.50     0          0          0          0
96-4-028         588.75     0          0          0          0
96-4-027         587.50     0          0          0          0
96-4-026         586.50     0          0          0          0
96-4-025         587.42     0          0          0          0
96-4-001         586.00     0          0          0          0
96-1-036         583.00     0          0          0          0
96-2-040         578.00     0          0          0          0
96-2-037         574.90     0          0          0          0
96-2-036         574.70     0          0          0          0
96-2-032         572.10     0          0          0          0
96-2-031         571.50     0          0          0          0
96-2-030         571.80     0          0          0          0
96-2-029         572.60     0          0          0          0
96-2-028         571.00     0          0          0          0
96-2-026         571.50     0          0          0          0
96-2-025         568.10     0          0          0          0
96-2-024         568.00     0          0          0          0
96-2-021         567.00     0          0          0          0
96-1-037         584.39     0          0          0          0
96-1-038         580.00     0          0          0          0
96-2-041         579.00     0          0          0          0
96-4-054         599.00     0          0          0          0
104-2-003        518.60     0          0          0          0
104-2-004        518.20     0          0          0          0
104-2-002        521.00     0          0          0          0
105-3-028        515.40     0          0          0          0
105-3-026        517.40     0          0          0          0
96-3-050         598.00     0          0          0          0

[CONDUITS]
;;Name           From             To               Length     Roughness  InOffset   OutOffset  InitFlow   MaxFlow
;;-------------- ---------------- ---------------- ---------- ---------- ---------- ---------- ---------- ----------
LK972042         ?                Node_97          87.00      0.0130     611.10     610.92     0          0
LK972042A        97-2-042A        97-2-039         454.00     0.0130     610.92     610.18     0          0
LK972039         97-2-039         97-2-040         440.00     0.0130     610.08     609.20     0          0
LK972040         97-2-040         97-2-041         404.20     0.0130     609.10     608.30     0          0
LK972041         97-2-041         96-3-017         350.80     0.0130     608.20     607.50     0          0
LK963017         96-3-017         96-3-016         500.00     0.0130     607.41     606.32     0          0
LK963016         96-3-016         96-3-015         500.00     0.0130     606.32     605.22     0          0
LK963015         96-3-015         96-3-015A        270.00     0.0130     605.22     604.72     0          0
LK963015A        96-3-015A        96-3-013         230.00     0.0130     604.72     599.84     0          0
LK963013         96-3-013         96-3-012         500.00     0.0130     599.84     587.85     0          0
LK963012         96-3-012         96-3-006         525.00     0.0130     587.85     582.80     0          0
LK963006         96-3-006         96-3-005         110.00     0.0130     582.48     582.17     0          0
LK963005         96-3-005         96-2-018         390.00     0.0130     582.17     581.08     0          0
LK962018         96-2-018         96-2-017         500.00     0.0130     580.98     579.58     0          0
LK962017         96-2-017         96-2-017A        400.00     0.0130     579.48     573.48     0          0
LK962017A        96-2-017A        96-2-016         100.00     0.0130     573.48     570.77     0          0
LK962016         96-2-016         96-2-015         20.90      0.0130     570.52     570.25     0          0
LK962015         96-2-015         96-2-012         360.00     0.0130     570.00     565.50     0          0
LK962012         96-2-012         96-2-010         520.00     0.0130     564.28     560.36     0          0
LK962010         96-2-010         96-2-009         60.00      0.0130     560.36     559.91     0          0
LK962009         96-2-009         96-2-008         350.00     0.0130     559.91     557.13     0          0
LK962008         96-2-008         96-2-007         500.00     0.0130     557.13     553.50     0          0
LK962007         96-2-007         96-2-006         145.00     0.0130     552.58     551.54     0          0
LK962006         96-2-006         96-2-003         191.70     0.0130     551.54     551.05     0          0
LK962003         96-2-003         96-2-002         110.00     0.0130     551.05     550.76     0          0
LK962002         96-2-002         96-2-001         193.70     0.0130     550.76     549.98     0          0
LK962001         96-2-001         104-4-068        153.00     0.0130     549.98     549.26     0          0
LK103122         103-1-022        104-4-068        300.00     0.0130     552.16     550.33     0          0
LK1044067        104-4-067        104-4-060        230.10     0.0130     549.05     548.21     0          0
LK1044061        104-4-061        104-4-060        180.00     0.0130     549.84     548.21     0          0
LK1031022A       103-1-022        104-4-071        350.00     0.0130     552.16     551.00     0          0
LK1044071        104-4-071        104-4-061        100.00     0.0130     551.00     549.84     0          0
LK1044060        LK1044060A       104-4-059        497.50     0.0130     547.91     546.64     0          0
LK1044059        104-4-059        104-4-058        499.80     0.0130     546.64     543.91     0          0
LK1044058        104-4-058        104-4-045        64.50      0.0130     543.91     542.69     0          0
LK1044046        104-4-046        104-4-045        90.00      0.0130     542.91     542.69     0          0
LK1044045        104-4-045        104-4-017        366.90     0.0130     542.69     540.11     0          0
LK1044017        104-4-017        104-4-016        368.20     0.0130     540.11     536.92     0          0
LK1044016        104-4-016        104-4-015        146.20     0.0130     536.92     535.27     0          0
LK1044015        104-4-015        104-4-014        15.00      0.0130     535.27     535.10     0          0
LK1044014        104-4-014        104-4-010        130.00     0.0130     535.10     533.64     0          0
LK1044010        104-4-010        104-4-009        149.30     0.0130     533.62     533.18     0          0
LK1044009        104-4-009        104-4-008        164.80     0.0130     533.18     532.70     0          0
LK1044008        104-4-008        104-4-006        255.00     0.0130     532.70     531.48     0          0
LK1044006        104-4-006        104-4-006A       112.00     0.0130     531.48     529.63     0          0
LK1044006A       104-4-006A       104-4-006B       86.00      0.0130     529.63     529.46     0          0
LK1044006B       104-4-006B       104-4-006C       229.00     0.0130     529.46     529.00     0          0
LK1044006C       104-4-006C       104-4-006D       224.00     0.0130     529.00     528.56     0          0
LK1044006D       104-4-006D       104-4-006E       81.00      0.0130     528.56     528.16     0          0
LK1044006E       104-4-006E       104-4-006F       242.00     0.0130     528.16     527.68     0          0
LK1044006F       104-4-006F       104-1-006G       245.00     0.0130     527.68     527.19     0          0
LK1041006G       104-1-006G       104-1-006H       245.00     0.0130     527.19     526.70     0          0
LK1041006H       104-1-006H       104-1-006I       120.00     0.0130     526.70     526.38     0          0
LK1042027        104-2-027        104-2-026        150.00     0.0130     525.15     524.58     0          0
LK1041006I       104-1-006I       104-1-023        40.00      0.0130     526.35     526.30     0          0
LK1041023        104-1-023        104-2-027        320.00     0.0130     526.24     525.15     0          0
LK1042026        104-2-026        104-2-025        303.20     0.0130     524.58     522.61     0          0
LK1042025        104-2-025        104-2-016        730.20     0.0130     522.61     518.38     0          0
LK1042016        104-2-016        104-2-015        294.60     0.0130     518.08     516.96     0          0
LK1042015        104-2-015        104-2-014        367.90     0.0130     516.96     515.93     0          0
LK1042014        104-2-014        104-2-013        140.00     0.0130     515.93     515.23     0          0
LK1042013        104-2-013        104-2-012        471.70     0.0130     515.23     512.85     0          0
LK1042012        104-2-012        104-2-005        258.10     0.0130     512.85     511.20     0          0
LK1053030        105-3-030        105-3-031        389.10     0.0130     507.52     506.05     0          0
LK1053033        105-3-033        105-3-034        264.20     0.0130     503.64     502.31     0          0
LK1053031        105-3-031        105-3-032        229.10     0.0130     506.05     504.26     0          0
LK1053032        105-3-032        105-3-033        80.00      0.0130     504.26     503.64     0          0
LK1053034        105-3-034        105-3-035        601.70     0.0130     502.31     500.15     0          0
LK1053035        105-3-035        105-3-039        528.60     0.0130     500.15     497.75     0          0
LK1053039        105-3-039        105-4-026        192.10     0.0130     497.75     496.90     0          0
LK1054026        105-4-026        105-4-027        417.00     0.0130     496.90     495.02     0          0
LK1054027        105-4-027        105-4-028        754.40     0.0130     495.02     490.37     0          0
LK1054012        105-4-012        105-4-012A       70.00      0.0130     487.96     487.53     0          0
LK1054012A       105-4-012A       105-4-013        100.00     0.0130     487.53     486.90     0          0
LK1054013        105-4-013        105-4-014        375.00     0.0130     486.90     483.68     0          0
LK1054014        105-4-014        105-4-015        193.90     0.0130     483.68     482.00     0          0
LK1054015        105-4-015        105-1-049        182.00     0.0130     482.00     479.23     0          0
LK1051049        105-1-049        094-2-047        533.50     0.0130     479.23     476.65     0          0
LK0942047        094-2-047        094-2-048        249.90     0.0130     476.65     474.18     0          0
LK0942048        094-2-048        094-2-051        140.00     0.0130     474.18     472.76     0          0
LK0942051        094-2-051        094-2-052        313.90     0.0130     472.76     469.81     0          0
LK0942052        094-2-052        094-2-054        55.00      0.0130     469.81     469.30     0          0
LK0942054        094-2-054        094-2-055        217.90     0.0130     469.30     467.40     0          0
LK0942055        094-2-055        094-2-056        254.70     0.0130     467.40     466.10     0          0
LK0942056        094-2-056        094-2-059        664.70     0.0130     463.60     460.32     0          0
LK0942059        094-2-059        094-1-058        309.80     0.0130     460.32     458.77     0          0
LK0941058        094-1-058        094-1-057        30.00      0.0130     455.66     455.51     0          0
LK0941057        094-1-057        094-1-056        532.20     0.0130     455.51     452.87     0          0
LK0941056        094-1-056        094-1-055        420.10     0.0130     452.62     451.36     0          0
LK0941055        094-1-055        094-1-054        294.40     0.0130     451.36     450.49     0          0
LK0941054        094-1-054        094-1-053        435.30     0.0130     450.49     449.20     0          0
LK0941053        094-1-053        094-1-052        174.60     0.0130     449.20     447.13     0          0
LK0941052        094-1-052        094-1-052A       90.00      0.0130     447.13     446.50     0          0
LK0941052A       094-1-052A       094-1-069        210.00     0.0130     446.50     435.23     0          0
LK0941069        094-1-069        094-1-068        294.10     0.0130     435.23     434.35     0          0
LK0941068        094-1-068        094-1-067        280.40     0.0130     434.35     433.51     0          0
LK0832019        083-2-019        083-2-018        85.10      0.0130     431.95     426.91     0          0
LK0941041        094-1-041        083-2-008        260.00     0.0130     443.11     441.63     0          0
LK0832008        083-2-008        083-2-009        110.00     0.0130     441.63     441.00     0          0
LK0832009        083-2-009        083-2-010        35.00      0.0130     441.00     440.79     0          0
LK0832010        083-2-010        083-2-016        185.00     0.0130     440.79     431.61     0          0
LK0832016        083-2-016        083-2-017        80.00      0.0130     431.61     427.64     0          0
LK0832017        083-2-017        083-2-018        15.00      0.0130     427.64     426.91     0          0
LK0941067        094-1-067        094-1-067A       386.50     0.0130     433.51     432.35     0          0
LK0941067A       094-1-067A       083-2-019        133.90     0.0130     432.35     431.95     0          0
LK0832018        083-2-018        083-2-020        288.50     0.0130     426.91     425.75     0          0
LK0832020        083-2-020        083-2-021        785.10     0.0130     426.03     423.60     0          0
LK0832021        083-2-021        083-2-022        48.00      0.0130     423.39     423.25     0          0
LK0832022        083-2-022        083-2-023        37.50      0.0130     423.25     423.14     0          0
LK0832023        083-2-023        084-3-091        754.70     0.0130     423.14     420.88     0          0
LK0843091        084-3-091        084-3-091A       326.20     0.0130     420.88     419.90     0          0
LK0843091A       084-3-091A       084-4-048        115.00     0.0130     419.90     410.55     0          0
LK0844048        084-4-048        084-4-047        428.10     0.0130     410.45     409.17     0          0
LK0844047        084-4-047        084-4-046        100.00     0.0130     409.17     408.87     0          0
LK0844046        084-4-046        084-4-045        120.10     0.0130     408.87     408.51     0          0
LK0844045        084-4-045        084-4-044        87.40      0.0130     408.51     408.24     0          0
LK0844044        084-4-044        084-4-043        199.80     0.0130     408.24     407.64     0          0
LK0844043        084-4-043        084-4-042        376.20     0.0130     407.64     406.51     0          0
LK0844042        084-4-042        084-4-041        438.00     0.0130     406.51     405.20     0          0
LK0844041        084-4-041        084-4-040        151.10     0.0130     405.20     404.75     0          0
LK0844040        084-4-040        084-4-037        148.30     0.0130     404.75     404.04     0          0
LK0844037        084-4-037        084-4-036        207.50     0.0130     404.33     403.34     0          0
LK0844036        084-4-036        084-4-027        207.50     0.0130     403.34     402.72     0          0
LK0844027        084-4-027        084-4-028        207.50     0.0130     402.72     402.26     0          0
LK0844028        084-4-028        084-4-029        207.75     0.0130     402.26     401.64     0          0
LK0844029        084-4-029        071-2-046        207.75     0.0130     401.64     401.18     0          0
LK0712046        071-2-046        071-2-045        417.10     0.0130     401.18     400.10     0          0
LK0712045        071-2-045        071-2-044        207.05     0.0130     400.10     399.56     0          0
LK0712044        071-2-044        071-2-043        207.05     0.0130     399.56     399.02     0          0
LK0712043        071-2-043        071-2-042        387.60     0.0130     399.02     398.01     0          0
LK0712042        071-2-042        071-2-041        369.70     0.0130     398.01     397.05     0          0
LK0712041        071-2-041        071-2-040        395.70     0.0130     397.05     396.02     0          0
LK0714007        071-4-007        071-4-007A       308.00     0.0130     422.20     416.92     0          0
LK0714007A       071-4-007A       071-4-005        123.00     0.0130     416.92     412.00     0          0
LK0714005        071-4-005        071-4-001        421.00     0.0130     410.50     407.74     0          0
LK0714001        071-4-001        071-4-001A       196.00     0.0130     407.74     407.35     0          0
LK0714001A       071-4-001A       071-3-016        60.00      0.0130     407.35     406.00     0          0
LK0713016        071-3-016        071-2-056        167.00     0.0130     407.00     406.63     0          0
LK0712056        071-2-056        071-2-055        415.10     0.0130     406.63     405.80     0          0
LK0712055        071-2-055        071-2-054        16.55      0.0130     405.80     405.31     0          0
LK0712054        071-2-054        071-2-053        16.55      0.0130     405.31     404.81     0          0
LK0712053        071-2-053        071-2-052        156.10     0.0130     404.81     404.34     0          0
LK0712052        071-2-052        071-2-051        108.70     0.0130     404.34     404.01     0          0
LK0712051        071-2-051        071-2-042        360.00     0.0130     404.01     402.98     0          0