;; SWMM5 .inp converted from XPSWMM .xp file
;; Generated by XPSWMM Card Reader
;; Source format: XP_CARD | Original title: RANGIORA SEWER NETWORK ANALYSIS STAGE III

[TITLE]
;;Project Title/Notes
RANGIORA SEWER NETWORK ANALYSIS STAGE III

[OPTIONS]
FLOW_UNITS           CMS
INFILTRATION         HORTON
FLOW_ROUTING         DYNWAVE
LINK_OFFSETS         DEPTH
MIN_SLOPE            0.0
ALLOW_PONDING        NO
SKIP_STEADY_STATE    NO
ROUTING_STEP         00:00:30
VARIABLE_STEP        0.75
INERTIAL_DAMPING     PARTIAL
NORMAL_FLOW_LIMITED  BOTH
MAX_TRIALS           50
HEAD_TOLERANCE       .001

[JUNCTIONS]
;;Name           Elev       MaxDepth   InitDepth  SurDepth   Aponded
;;-------------- ---------- ---------- ---------- ---------- ----------
0                34.21      0          0          0          0
0                33.55      0          0          0          0
0                32.87      0          0          0          0
0                31.71      0          0          0          0
0                30.97      0          0          0          0
0                30.63      0          0          0          0
0                27.67      0          0          0          0
0                27.15      0          0          0          0
0                25.80      0          0          0          0
0                24.32      0          0          0          0
0                24.16      0          0          0          0
0                21.91      0          0          0          0
0                21.60      0          0          0          0
0                20.00      0          0          0          0
0                20.58      0          0          0          0
0                19.72      0          0          0          0
0                19.13      0          0          0          0
0                18.74      0          0          0          0
0                18.50      0          0          0          0
0                18.25      0          0          0          0
0                18.00      0          0          0          0
0                17.52      0          0          0          0
0                17.05      0          0          0          0
0                19.69      0          0          0          0
0                18.89      0          0          0          0
0                18.61      0          0          0          0
0                20.98      0          0          0          0
0                19.50      0          0          0          0
0                19.53      0          0          0          0
0                20.31      0          0          0          0
0                29.02      0          0          0          0
0                28.36      0          0          0          0
0                27.51      0          0          0          0
0                22.56      0          0          0          0
0                22.03      0          0          0          0
0                26.80      0          0          0          0
0                26.50      0          0          0          0
0                26.06      0          0          0          0
0                25.65      0          0          0          0
0                24.88      0          0          0          0
0                24.45      0          0          0          0
0                23.82      0          0          0          0
0                23.55      0          0          0          0
0                22.76      0          0          0          0
0                32.60      0          0          0          0
0                32.26      0          0          0          0
0                32.10      0          0          0          0
0                31.26      0          0          0          0
0                30.58      0          0          0          0
0                30.20      0          0          0          0
0                29.81      0          0          0          0
0                29.27      0          0          0          0
0                29.10      0          0          0          0
0                23.86      0          0          0          0
0                23.45      0          0          0          0
0                23.14      0          0          0          0
0                22.50      0          0          0          0
0                21.04      0          0          0          0
0                33.40      0          0          0          0
0                33.05      0          0          0          0
0                32.00      0          0          0          0
0                31.77      0          0          0          0
0                30.98      0          0          0          0
0                30.70      0          0          0          0
0                30.34      0          0          0          0
0                35.62      0          0          0          0
0                35.28      0          0          0          0
0                35.14      0          0          0          0
0                34.53      0          0          0          0
0                34.24      0          0          0          0
0                34.81      0          0          0          0
0                34.12      0          0          0          0
0                34.24      0          0          0          0
0                34.07      0          0          0          0
0                32.62      0          0          0          0
0                32.30      0          0          0          0
0                32.77      0          0          0          0
0                30.97      0          0          0          0
0                30.20      0          0          0          0
0                26.25      0          0          0          0
0                36.05      0          0          0          0
0                35.84      0          0          0          0
0                34.98      0          0          0          0
0                34.81      0          0          0          0
0                35.15      0          0          0          0
0                34.70      0          0          0          0
0                32.44      0          0          0          0
0                31.00      0          0          0          0
0                30.42      0          0          0          0
0                34.78      0          0          0          0
0                34.64      0          0          0          0
0                34.49      0          0          0          0
0                32.65      0          0          0          0
0                32.00      0          0          0          0
0                31.35      0          0          0          0
0                31.40      0          0          0          0
0                31.12      0          0          0          0
0                30.03      0          0          0          0
0                29.75      0          0          0          0
0                25.88      0          0          0          0
0                26.10      0          0          0          0
0                28.85      0          0          0          0
0                26.24      0          0          0          0
0                26.47      0          0          0          0
0                30.82      0          0          0          0
0                29.46      0          0          0          0
0                29.86      0          0          0          0
0                27.00      0          0          0          0
0                29.04      0          0          0          0
0                28.37      0          0          0          0
0                28.40      0          0          0          0
0                27.85      0          0          0          0
0                28.50      0          0          0          0
0                28.63      0          0          0          0
0                29.15      0          0          0          0
0                31.40      0          0          0          0
0                31.20      0          0          0          0
0                31.18      0          0          0          0
0                32.36      0          0          0          0
0                33.87      0          0          0          0
0                33.80      0          0          0          0
0                26.18      0          0          0          0
0                25.30      0          0          0          0
0                25.75      0          0          0          0
0                24.59      0          0          0          0
0                24.75      0          0          0          0
0                23.15      0          0          0          0
0                23.08      0          0          0          0
0                22.88      0          0          0          0
0                23.09      0          0          0          0
0                22.80      0          0          0          0
0                22.42      0          0          0          0
0                20.88      0          0          0          0
0                20.15      0          0          0          0
0                22.25      0          0          0          0
0                21.67      0          0          0          0
0                21.00      0          0          0          0
0                20.15      0          0          0          0
0                22.97      0          0          0          0
0                24.79      0          0          0          0
0                24.16      0          0          0          0
0                23.64      0          0          0          0
0                23.65      0          0          0          0
0                24.46      0          0          0          0
0                23.12      0          0          0          0
0                22.50      0          0          0          0
0                23.21      0          0          0          0
0                22.70      0          0          0          0
0                24.15      0          0          0          0
0                24.82      0          0          0          0
0                22.36      0          0          0          0
0                16.40      0          0          0          0
0                16.20      0          0          0          0
0                31.23      0          0          0          0
0                23.44      0          0          0          0
0                38.80      0          0          0          0
0                20.23      0          0          0          0
0                20.44      0          0          0          0
0                32.80      0          0          0          0
0                31.50      0          0          0          0
0                21.00      0          0          0          0
0                37.00      0          0          0          0
0                30.64      0          0          0          0
0                29.22      0          0          0          0
0                29.11      0          0          0          0
0                27.14      0          0          0          0
0                19.00      0          0          0          0
0                35.96      0          0          0          0
0                34.40      0          0          0          0
0                33.22      0          0          0          0
0                18.00      0          0          0          0
0                25.39      0          0          0          0

[CONDUITS]
;;Name           From             To               Length     Roughness  InOffset   OutOffset  InitFlow   MaxFlow
;;-------------- ---------------- ---------------- ---------- ---------- ---------- ---------- ---------- ----------
203              ?                0                176.00     0.0182     32.78      32.23      0          0
205              ?                0                105.00     0.0182     32.23      31.48      0          0
207              ?                0                130.00     0.0173     31.48      30.49      0          0
209              ?                0                119.00     0.0173     30.49      29.65      0          0
211              ?                0                80.00      0.0173     29.65      29.02      0          0
213              ?                0                320.00     0.0173     29.02      26.58      0          0
215              ?                0                106.00     0.0173     26.58      25.65      0          0
217              ?                0                330.00     0.0173     25.65      24.09      0          0
221              ?                0                47.00      0.0182     22.96      22.72      0          0
225              ?                0                77.00      0.0173     19.59      19.35      0          0
229              ?                0                214.00     0.0182     18.57      17.91      0          0
233              ?                0                114.00     0.0140     17.37      17.05      0          0
235              ?                0                109.00     0.0182     17.05      16.45      0          0
237              ?                0                285.00     0.0137     16.45      16.10      0          0
239              ?                0                20.00      0.0137     16.10      16.04      0          0
242              ?                0                74.00      0.0137     16.04      15.95      0          0
244              ?                0                76.00      0.0137     15.95      15.87      0          0
246              ?                0                95.00      0.0137     15.87      15.76      0          0
250              ?                0                205.00     0.0182     17.69      17.08      0          0
251              ?                0                105.00     0.0182     17.08      16.77      0          0
253              ?                0                185.00     0.0182     16.77      15.95      0          0
258              ?                0                125.00     0.0182     18.98      18.57      0          0
285              ?                0                134.00     0.0162     17.79      16.99      0          0
287              ?                0                142.00     0.0173     18.28      17.79      0          0
227              ?                0                282.00     0.0173     19.35      18.28      0          0
290              ?                0                89.00      0.0182     27.05      26.58      0          0
291              ?                0                117.00     0.0173     26.58      25.97      0          0
293              ?                0                75.00      0.0173     25.97      25.65      0          0
219              ?                0                555.00     0.0173     24.09      21.32      0          0
296              ?                0                96.00      0.0162     21.32      20.93      0          0
298              ?                0                205.00     0.0162     20.93      20.00      0          0
301              ?                0                125.00     0.0182     25.93      25.35      0          0
303              ?                0                150.00     0.0173     25.35      24.82      0          0
305              ?                0                75.00      0.0173     24.82      24.45      0          0
307              ?                0                150.00     0.0173     24.45      23.49      0          0
309              ?                0                67.00      0.0173     23.49      23.32      0          0
311              ?                0                93.00      0.0173     23.32      22.72      0          0
313              ?                0                74.00      0.0162     22.72      22.48      0          0
319              ?                0                70.00      0.0162     21.69      21.32      0          0
205              ?                0                195.00     0.0140     32.38      31.38      0          0
322              ?                0                177.00     0.0140     31.38      30.64      0          0
324              ?                0                90.00      0.0140     30.64      30.28      0          0
326              ?                0                136.00     0.0140     30.28      29.65      0          0
330              ?                0                154.00     0.0182     29.18      28.67      0          0
332              ?                0                115.00     0.0182     28.67      27.97      0          0
334              ?                0                59.00      0.0173     27.97      27.77      0          0
336              ?                0                189.00     0.0173     27.77      27.11      0          0
338              ?                0                426.00     0.0182     27.11      23.02      0          0
340              ?                0                122.00     0.0182     23.15      21.94      0          0
342              ?                0                80.00      0.0182     21.94      21.69      0          0
349              ?                0                213.00     0.0173     21.32      20.38      0          0
351              ?                0                70.00      0.0173     20.38      20.10      0          0
354              ?                0                140.00     0.0182     32.13      31.41      0          0
355              ?                0                156.00     0.0182     31.41      30.89      0          0
357              ?                0                107.00     0.0173     30.89      30.39      0          0
359              ?                0                210.00     0.0182     30.39      29.63      0          0
361              ?                0                92.00      0.0173     29.41      29.08      0          0
363              ?                0                106.00     0.0173     29.08      28.66      0          0
365              ?                0                152.00     0.0173     28.66      27.97      0          0
368              ?                0                115.00     0.0140     34.63      34.11      0          0
369              ?                0                102.00     0.0140     34.11      33.66      0          0
371              ?                0                99.00      0.0140     33.66      33.30      0          0
373              ?                0                102.00     0.0182     33.30      32.96      0          0
375              ?                0                40.00      0.0182     32.96      32.78      0          0
378              ?                0                148.00     0.0182     33.61      32.92      0          0
379              ?                0                143.00     0.0182     32.92      32.00      0          0
382              ?                0                106.00     0.0140     33.07      32.75      0          0
383              ?                0                210.00     0.0140     32.75      31.84      0          0
385              ?                0                125.00     0.0140     31.84      31.49      0          0
387              ?                0                129.00     0.0140     31.49      30.83      0          0
390              ?                0                412.00     0.0140     31.37      29.65      0          0
392              ?                0                147.00     0.0140     29.55      28.90      0          0
394              ?                0                418.00     0.0140     28.90      25.38      0          0
396              ?                0                138.00     0.0182     25.38      24.45      0          0
426              ?                0                120.00     0.0182     35.13      34.64      0          0
428              ?                0                195.00     0.0182     34.64      33.30      0          0
432              ?                0                198.00     0.0182     34.15      32.96      0          0
428              ?                0                103.00     0.0182     34.64      34.15      0          0
432              ?                0                110.00     0.0182     34.23      33.57      0          0
436              ?                0                308.00     0.0182     33.57      32.13      0          0
444              ?                0                167.00     0.0182     33.85      33.50      0          0
446              ?                0                325.00     0.0182     33.50      31.41      0          0
473              ?                0                365.00     0.0140     31.26      29.79      0          0
474              ?                0                110.00     0.0182     29.79      29.22      0          0
476              ?                0                40.00      0.0182     29.22      29.08      0          0
481              ?                0                103.00     0.0182     34.12      33.83      0          0
482              ?                0                103.00     0.0182     33.83      33.61      0          0
486              ?                0                245.00     0.0182     33.80      32.37      0          0
491              ?                0                133.00     0.0140     31.78      31.04      0          0
493              ?                0                90.00      0.0140     30.38      30.28      0          0
495              ?                0                143.00     0.0140     30.15      29.65      0          0
497              ?                0                98.00      0.0140     30.43      29.70      0          0
498              ?                0                70.00      0.0182     29.70      29.18      0          0
501              ?                0                135.00     0.0182     28.74      28.17      0          0
502              ?                0                393.00     0.0182     28.17      24.53      0          0
504              ?                0                195.00     0.0182     24.53      22.72      0          0
508              ?                0                163.00     0.0182     24.90      23.59      0          0
511              ?                0                293.00     0.0140     27.64      25.04      0          0
515              ?                0                475.00     0.0140     24.88      20.38      0          0
517              ?                0                278.00     0.0140     29.62      28.26      0          0
518              ?                0                133.00     0.0182     28.26      27.11      0          0
539              ?                0                325.00     0.0140     28.38      25.80      0          0
540              ?                0                60.00      0.0182     25.80      25.38      0          0
543              ?                0                295.00     0.0182     27.95      25.35      0          0
545              ?                0                178.00     0.0140     27.17      25.93      0          0
547              ?                0                138.00     0.0182     27.10      26.60      0          0
548              ?                0                55.00      0.0182     26.60      25.97      0          0
551              ?                0                165.00     0.0173     27.23      26.58      0          0
553              ?                0                180.00     0.0182     27.43      27.23      0          0
555              ?                0                68.00      0.0173     27.30      27.23      0          0
557              ?                0                233.00     0.0140     30.10      29.80      0          0
558              ?                0                75.00      0.0182     29.80      27.25      0          0
562              ?                0                128.00     0.0173     30.77      29.70      0          0
564              ?                0                245.00     0.0173     32.09      30.77      0          0
382              ?                0                125.00     0.0182     32.57      32.09      0          0
567              ?                0                138.00     0.0140     32.49      32.09      0          0
569              ?                0                165.00     0.0182     24.48      23.76      0          0
576              ?                0                210.00     0.0182     24.45      23.76      0          0
570              ?                0                95.00      0.0182     23.76      23.29      0          0
580              ?                0                110.00     0.0182     23.29      22.72      0          0
584              ?                0                140.00     0.0182     23.53      22.79      0          0
585              ?                0                50.00      0.0182     22.79      22.29      0          0
587              ?                0                85.00      0.0192     22.29      21.82      0          0
596              ?                0                90.00      0.0182     22.29      21.82      0          0
593              ?                0                160.00     0.0182     21.82      21.16      0          0
599              ?                0                90.00      0.0182     21.16      20.61      0          0
601              ?                0                190.00     0.0182     20.61      19.52      0          0
603              ?                0                103.00     0.0182     19.52      18.85      0          0
608              ?                0                363.00     0.0182     20.93      18.85      0          0
613              ?                0                93.00      0.0182     20.05      19.79      0          0
615              ?                0                350.00     0.0182     19.79      18.85      0          0
617              ?                0                275.00     0.0182     18.85      17.79      0          0
620              ?                0                148.00     0.0182     21.64      20.61      0          0
623              ?                0                188.00     0.0182     23.49      22.76      0          0
625              ?                0                95.00      0.0182     22.76      22.34      0          0
627              ?                0                225.00     0.0182     22.34      21.45      0          0
629              ?                0                90.00      0.0182     21.45      20.91      0          0
633              ?                0                98.00      0.0173     20.91      20.30      0          0
635              ?                0                110.00     0.0173     20.30      19.59      0          0
639              ?                0                183.00     0.0182     21.87      20.91      0          0
643              ?                0                263.00     0.0182     21.45      20.30      0          0
647              ?                0                75.00      0.0182     22.74      22.34      0          0
652              ?                0                170.00     0.0182     23.53      22.96      0          0
223              ?                0                320.00     0.0173     22.72      20.52      0          0
655              ?                0                188.00     0.0173     20.52      19.59      0          0
248              ?                0                222.00     0.0137     15.76      15.52      0          0
658              ?                0                50.00      0.0137     15.52      14.74      0          0
315              ?                0                120.00     0.0162     22.48      21.69      0          0
328              ?                0                25.00      0.0140     29.65      29.56      0          0
670              ?                0                135.00     0.0182     29.56      29.18      0          0
673              ?                0                65.00      0.0173     22.41      21.94      0          0
340              ?                0                63.00      0.0173     23.02      22.41      0          0
345              ?                0                143.00     0.0173     21.94      21.32      0          0
512              ?                0                220.00     0.0182     25.04      21.94      0          0
679              ?                0                1125.00    0.0182     36.60      32.57      0          0
561              ?                0                250.00     0.0173     29.70      27.25      0          0
700              ?                0                174.00     0.0159     19.40      18.79      0          0
684              ?                0                191.00     0.0159     18.79      17.86      0          0
686              ?                0                441.00     0.0159     17.86      17.21      0          0
207              ?                0                60.00      0.0140     32.00      31.30      0          0
209              ?                0                60.00      0.0140     30.84      30.10      0          0
694              ?                0                200.00     0.0140     30.10      29.55      0          0
692              ?                0                130.00     0.0140     31.30      30.10      0          0
231              0                0                182.00     0.0182     17.91      17.37      0          0
227              ?                0                300.00     0.0140     19.35      18.57      0          0
727              ?                0                601.00     0.0140     30.84      29.12      0          0
711              ?                0                505.00     0.0140     29.12      27.66      0          0
713              ?                0                85.00      0.0140     27.66      27.20      0          0