;; SWMM5 .inp converted from XPSWMM .xp file
;; Generated by XPSWMM Card Reader
;; Source format: XP_CARD | Original title: (none)

[TITLE]
;;Project Title/Notes
Converted from XPSWMM .xp file

[OPTIONS]
FLOW_UNITS           CFS
INFILTRATION         HORTON
FLOW_ROUTING         DYNWAVE
LINK_OFFSETS         DEPTH
MIN_SLOPE            0.0
ALLOW_PONDING        NO
SKIP_STEADY_STATE    NO
ROUTING_STEP         00:00:30
VARIABLE_STEP        0.75
INERTIAL_DAMPING     PARTIAL
NORMAL_FLOW_LIMITED  BOTH
MAX_TRIALS           100
HEAD_TOLERANCE       0.0033

[JUNCTIONS]
;;Name           Elev       MaxDepth   InitDepth  SurDepth   Aponded
;;-------------- ---------- ---------- ---------- ---------- ----------
0384             91.70      0          0          0          0
0381             92.70      0          0          0          0
0389             91.80      0          0          0          0
0390             94.00      0          0          0          0
0393             91.00      0          0          0          0
0410             92.20      0          0          0          0
0363             90.30      0          0          0          0
0362             90.50      0          0          0          0
0361             91.50      0          0          0          0
0360             91.08      0          0          0          0
0070             90.60      0          0          0          0
0074             87.80      0          0          0          0
0115             87.40      0          0          0          0
0354             94.00      0          0          0          0
0057             90.70      0          0          0          0
0319             88.20      0          0          0          0
0312             91.00      0          0          0          0
0117             88.00      0          0          0          0
0119             82.55      0          0          0          0
0251             81.00      0          0          0          0
0241             77.70      0          0          0          0
0094             91.30      0          0          0          0
0105             92.60      0          0          0          0
0132             92.00      0          0          0          0
0127             92.60      0          0          0          0
0258             85.00      0          0          0          0
0256             86.00      0          0          0          0
0303             89.80      0          0          0          0
0300             83.30      0          0          0          0
0294             85.00      0          0          0          0
0290             77.70      0          0          0          0
0268             79.00      0          0          0          0
0266             76.70      0          0          0          0
0260             78.10      0          0          0          0
0246             77.60      0          0          0          0
0244             78.30      0          0          0          0
0274             84.00      0          0          0          0
0216             78.30      0          0          0          0
0182             97.40      0          0          0          0
0189             93.30      0          0          0          0
0199             85.50      0          0          0          0
0211             79.00      0          0          0          0
0184             92.10      0          0          0          0
0178             94.90      0          0          0          0
0180             98.60      0          0          0          0
0152             99.00      0          0          0          0
0157             97.80      0          0          0          0
0168             96.80      0          0          0          0
0144             96.40      0          0          0          0
0141             96.20      0          0          0          0
0239             77.70      0          0          0          0
0253             92.00      0          0          0          0
0251             90.20      0          0          0          0
0067             88.20      0          0          0          0
0077             91.60      0          0          0          0
0315             92.50      0          0          0          0
0257             92.00      0          0          0          0
0272             92.10      0          0          0          0
0376             95.00      0          0          0          0
0282             90.50      0          0          0          0
0394             90.30      0          0          0          0
0297             92.10      0          0          0          0
0306             92.60      0          0          0          0
0283             87.50      0          0          0          0
0273             86.50      0          0          0          0
0134             93.10      0          0          0          0
0242             77.80      0          0          0          0
0151             100.70     0          0          0          0
0139             97.00      0          0          0          0
0177             92.10      0          0          0          0
0185             91.30      0          0          0          0
0191             93.50      0          0          0          0
0197             87.90      0          0          0          0
0229             87.00      0          0          0          0
0222             82.60      0          0          0          0
0214             79.80      0          0          0          0
0240             77.70      0          0          0          0
0248             78.60      0          0          0          0

[CONDUITS]
;;Name           From             To               Length     Roughness  InOffset   OutOffset  InitFlow   MaxFlow
;;-------------- ---------------- ---------------- ---------- ---------- ---------- ---------- ---------- ----------
13               0384             0381             532.00     0.0130     82.11      80.52      0          0
15               0381             0389             300.00     0.0130     80.27      79.69      0          0
17               0389             0390             234.00     0.0130     79.66      79.32      0          0
19               0390             0393             564.00     0.0130     79.24      78.13      0          0
21               0393             0410             165.00     0.0130     78.01      77.73      0          0
23               0410             0363             300.00     0.0130     77.73      77.06      0          0
25               0363             0362             126.00     0.0130     77.06      77.02      0          0
27               0362             0361             283.00     0.0130     76.79      76.77      0          0
29               0361             0360             140.00     0.0130     76.35      75.99      0          0
31               0360             0070             200.00     0.0130     75.95      75.59      0          0
33               0070             0074             266.00     0.0130     75.00      74.68      0          0
35               0074             0115             564.00     0.0130     74.68      74.04      0          0
37               0354             0070             1360.00    0.0130     85.40      78.00      0          0
44               0319             0312             730.00     0.0130     81.66      79.14      0          0
45               0312             0115             1065.00    0.0130     79.14      75.00      0          0
47               0115             0117             231.00     0.0130     73.76      73.06      0          0
49               0117             0119             505.00     0.0130     73.06      71.55      0          0
51               0119             0251             330.00     0.0100     71.55      70.23      0          0
56               0094             0105             850.00     0.0130     84.00      81.12      0          0
57               0105             0115             930.00     0.0130     79.95      73.90      0          0
60               0132             0127             430.00     0.0130     83.82      81.32      0          0
61               0127             0119             1458.00    0.0130     81.32      72.35      0          0
64               0258             0256             200.00     0.0130     76.00      75.34      0          0
65               0256             0119             720.00     0.0100     75.34      72.46      0          0
68               0303             0300             346.00     0.0130     76.85      74.67      0          0
70               0300             0294             403.00     0.0130     74.67      73.02      0          0
72               0294             0290             798.00     0.0130     73.02      70.63      0          0
74               0290             0268             270.00     0.0130     70.50      69.48      0          0
76               0268             0266             176.00     0.0130     69.47      68.78      0          0
80               0260             0246             360.00     0.0130     67.41      65.99      0          0
82               0246             0244             414.00     0.0130     65.99      64.39      0          0
83               0244             0241             208.00     0.0130     64.39      63.59      0          0
85               0274             0268             568.00     0.0130     71.88      69.77      0          0
86               0258             0260             436.00     0.0130     76.00      67.69      0          0
94               0182             0189             295.00     0.0130     81.68      79.33      0          0
96               0189             0199             384.00     0.0130     79.19      74.90      0          0
98               0199             0211             370.00     0.0130     74.90      69.59      0          0
99               0211             0216             183.00     0.0130     69.59      66.90      0          0
102              0184             0182             547.00     0.0130     84.30      82.65      0          0
106              0178             0180             272.00     0.0130     84.34      83.61      0          0
107              0180             0182             298.00     0.0130     82.99      81.79      0          0
110              0152             0157             429.00     0.0130     92.33      91.04      0          0
112              0157             0168             212.00     0.0130     91.04      89.77      0          0
114              0168             0144             298.00     0.0130     89.77      84.63      0          0
115              0144             0180             335.00     0.0130     84.33      82.99      0          0
117              0141             0144             549.00     0.0130     86.24      84.63      0          0
119              0241             0239             100.00     0.0050     38.05      38.00      0          0
130              0253             0251             572.00     0.0130     79.78      78.17      0          0
131              0251             0070             1139.00    0.0130     78.00      75.50      0          0
163              0057             0067             885.00     0.0130     81.71      78.51      0          0
164              0067             0070             965.00     0.0130     78.36      75.65      0          0
166              0077             0067             600.00     0.0130     82.40      80.00      0          0
168              0315             0381             600.00     0.0130     82.89      80.35      0          0
170              0257             0361             1434.00    0.0130     82.60      76.77      0          0
172              0272             0363             1069.00    0.0130     82.08      77.72      0          0
174              0376             0410             700.00     0.0130     84.88      79.94      0          0
177              0282             0394             311.00     0.0130     80.63      79.39      0          0
178              0394             0393             242.00     0.0130     79.39      78.25      0          0
180              0297             0394             837.00     0.0130     82.06      79.41      0          0
182              0306             0389             580.00     0.0130     82.21      79.66      0          0
185              0283             0273             169.00     0.0130     74.29      72.92      0          0
188              0134             0094             599.00     0.0130     89.20      84.00      0          0
189              0274             0273             119.00     0.0130     72.97      72.92      0          0
192              0242             0241             44.00      0.0140     67.69      63.90      0          0
194              0266             0260             280.00     0.0130     68.54      67.51      0          0
196              0151             0152             180.00     0.0130     93.32      92.60      0          0
198              0139             0141             253.00     0.0130     87.35      86.24      0          0
200              0177             0132             243.00     0.0130     85.90      83.82      0          0
201              0177             0178             530.00     0.0130     86.31      84.34      0          0
203              0185             0127             340.00     0.0130     85.38      81.32      0          0
204              0185             0184             252.00     0.0130     84.94      84.30      0          0
206              0191             0189             546.00     0.0130     83.97      82.17      0          0
208              0197             0199             506.00     0.0130     78.55      75.84      0          0
211              0229             0222             489.00     0.0130     75.26      72.45      0          0
212              0222             0211             422.00     0.0130     72.33      70.78      0          0
214              0214             0216             532.00     0.0130     69.68      67.58      0          0
216              0216             0240             289.00     0.0100     66.90      63.00      0          0
217              0240             0241             100.00     0.0068     58.35      58.30      0          0
225              0251             0248             335.00     0.0100     70.23      68.89      0          0
233              0248             0242             300.00     0.0100     68.89      67.69      0          0

[XSECTIONS]
;;Link           Shape        Geom1      Geom2      Geom3      Geom4      Barrels
;;-------------- ------------ ---------- ---------- ---------- ---------- ----------
13               CIRCULAR     0.83       0          0          0          1
15               CIRCULAR     0.90       0          0          0          1
17               CIRCULAR     0.90       0          0          0          1
19               CIRCULAR     0.90       0          0          0          1
21               CIRCULAR     1.00       0          0          0          1
23               CIRCULAR     1.16       0          0          0          1
25               CIRCULAR     1.16       0          0          0          1
27               CIRCULAR     1.16       0          0          0          1
29               CIRCULAR     1.25       0          0          0          1
31               CIRCULAR     1.25       0          0          0          1
33               CIRCULAR     1.42       0          0          0          1
35               CIRCULAR     1.50       0          0          0          1
37               CIRCULAR     0.54       0          0          0          1
44               CIRCULAR     0.54       0          0          0          1
45               CIRCULAR     0.54       0          0          0          1
47               CIRCULAR     1.50       0          0          0          1
49               CIRCULAR     1.50       0          0          0          1
51               CIRCULAR     1.50       0          0          0          1
56               CIRCULAR     0.54       0          0          0          1
57               CIRCULAR     0.83       0          0          0          1
60               CIRCULAR     0.67       0          0          0          1
61               CIRCULAR     0.54       0          0          0          1
64               CIRCULAR     0.67       0          0          0          1
65               CIRCULAR     0.65       0          0          0          1
68               CIRCULAR     0.54       0          0          0          1
70               CIRCULAR     0.54       0          0          0          1
72               CIRCULAR     0.54       0          0          0          1
74               CIRCULAR     0.54       0          0          0          1
76               CIRCULAR     0.54       0          0          0          1
80               CIRCULAR     0.77       0          0          0          1
82               CIRCULAR     0.77       0          0          0          1
83               CIRCULAR     0.77       0          0          0          1
85               CIRCULAR     0.54       0          0          0          1
86               CIRCULAR     0.67       0          0          0          1
94               CIRCULAR     0.67       0          0          0          1
96               CIRCULAR     0.67       0          0          0          1
98               CIRCULAR     0.67       0          0          0          1
99               CIRCULAR     0.67       0          0          0          1
102              CIRCULAR     0.54       0          0          0          1
106              CIRCULAR     0.54       0          0          0          1
107              CIRCULAR     0.67       0          0          0          1
110              CIRCULAR     0.83       0          0          0          1
112              CIRCULAR     0.77       0          0          0          1
114              CIRCULAR     0.67       0          0          0          1
115              CIRCULAR     0.67       0          0          0          1
117              CIRCULAR     0.54       0          0          0          1
119              CIRCULAR     1.50       0          0          0          1
130              CIRCULAR     0.77       0          0          0          1
131              CIRCULAR     0.90       0          0          0          1
163              CIRCULAR     0.54       0          0          0          1
164              CIRCULAR     0.77       0          0          0          1
166              CIRCULAR     0.54       0          0          0          1
168              CIRCULAR     0.54       0          0          0          1
170              CIRCULAR     0.54       0          0          0          1
172              CIRCULAR     0.54       0          0          0          1
174              CIRCULAR     0.54       0          0          0          1
177              CIRCULAR     0.54       0          0          0          1
178              CIRCULAR     0.67       0          0          0          1
180              CIRCULAR     0.54       0          0          0          1
182              CIRCULAR     0.54       0          0          0          1
185              CIRCULAR     0.54       0          0          0          1
188              CIRCULAR     0.54       0          0          0          1
189              CIRCULAR     0.54       0          0          0          1
192              CIRCULAR     1.50       0          0          0          1
194              CIRCULAR     0.54       0          0          0          1
196              CIRCULAR     0.67       0          0          0          1
198              CIRCULAR     0.67       0          0          0          1
200              CIRCULAR     0.67       0          0          0          1
201              CIRCULAR     0.67       0          0          0          1
203              CIRCULAR     0.67       0          0          0          1
204              CIRCULAR     0.67       0          0          0          1
206              CIRCULAR     0.67       0          0          0          1
208              CIRCULAR     0.67       0          0          0          1
211              CIRCULAR     0.67       0          0          0          1
212              CIRCULAR     0.67       0          0          0          1
214              CIRCULAR     0.67       0          0          0          1
216              CIRCULAR     0.67       0          0          0          1
217              CIRCULAR     1.75       0          0          0          1
225              CIRCULAR     1.50       0          0          0          1
233              CIRCULAR     1.50       0          0          0          1

[LOSSES]
;;Link           Inlet      Outlet     Average    Flap Gate
;;-------------- ---------- ---------- ---------- ----------
13               0          0          0          NO
15               0          0          0          NO
17               0          0          0          NO
19               0          0          0          NO
21               0          0          0          NO
23               0          0          0          NO
25               0          0          0          NO
27               0          0          0          NO
29               0          0          0          NO
31               0          0          0          NO
33               0          0          0          NO
35               0          0          0          NO
37               0          0          0          NO
44               0          0          0          NO
45               0          0          0          NO
47               0          0          0          NO
49               0          0          0          NO
51               0          0          0          NO
56               0          0          0          NO
57               0          0          0          NO
60               0          0          0          NO
61               0          0          0          NO
64               0          0          0          NO
65               0          0          0          NO
68               0          0          0          NO
70               0          0          0          NO
72               0          0          0          NO
74               0          0          0          NO
76               0          0          0          NO
80               0          0          0          NO
82               0          0          0          NO
83               0          0          0          NO
85               0          0          0          NO
86               0          0          0          NO
94               0          0          0          NO
96               0          0          0          NO
98               0          0          0          NO
99               0          0          0          NO
102              0          0          0          NO
106              0          0          0          NO
107              0          0          0          NO
110              0          0          0          NO
112              0          0          0          NO
114              0          0          0          NO
115              0          0          0          NO
117              0          0          0          NO
119              0          0          0          NO
130              0          0          0          NO
131              0          0          0          NO
163              0          0          0          NO
164              0          0          0          NO
166              0          0          0          NO
168              0          0          0          NO
170              0          0          0          NO
172              0          0          0          NO
174              0          0          0          NO
177              0          0          0          NO
178              0          0          0          NO
180              0          0          0          NO
182              0          0          0          NO
185              0          0          0          NO
188              0          0          0          NO
189              0          0          0          NO
192              0          0          0          NO
194              0          0          0          NO
196              0          0          0          NO
198              0          0          0          NO
200              0          0          0          NO
201              0          0          0          NO
203              0          0          0          NO
204              0          0          0          NO
206              0          0          0          NO
208              0          0          0          NO
211              0          0          0          NO
212              0          0          0          NO
214              0          0          0          NO
216              0          0          0          NO
217              0          0          0          NO
225              0          0          0          NO
233              0          0          0          NO

[INFLOWS]
;;Node           Constituent  Time Series      Type     Mfactor  Sfactor  Baseline Pattern
;;-------------- ------------ ---------------- -------- -------- -------- -------- --------
0384             FLOW         ""               FLOW     1.0      1.0      0.49
0390             FLOW         ""               FLOW     1.0      1.0      0.06
0410             FLOW         ""               FLOW     1.0      1.0      0.05
0363             FLOW         ""               FLOW     1.0      1.0      0.06
0361             FLOW         ""               FLOW     1.0      1.0      0.04
0070             FLOW         ""               FLOW     1.0      1.0      0.07
0115             FLOW         ""               FLOW     1.0      1.0      0.05
0354             FLOW         ""               FLOW     1.0      1.0      0.03
0057             FLOW         ""               FLOW     1.0      1.0      0.06
0319             FLOW         ""               FLOW     1.0      1.0      0.05
0312             FLOW         ""               FLOW     1.0      1.0      0.07
0119             FLOW         ""               FLOW     1.0      1.0      0.10
0251             FLOW         ""               FLOW     1.0      1.0      0.05
0094             FLOW         ""               FLOW     1.0      1.0      0.05
0105             FLOW         ""               FLOW     1.0      1.0      0.15
0127             FLOW         ""               FLOW     1.0      1.0      0.11
0256             FLOW         ""               FLOW     1.0      1.0      0.05
0303             FLOW         ""               FLOW     1.0      1.0      0.05
0294             FLOW         ""               FLOW     1.0      1.0      0.05
0290             FLOW         ""               FLOW     1.0      1.0      0.02
0266             FLOW         ""               FLOW     1.0      1.0      0.04
0260             FLOW         ""               FLOW     1.0      1.0      0.04
0246             FLOW         ""               FLOW     1.0      1.0      0.01
0274             FLOW         ""               FLOW     1.0      1.0      0.05
0199             FLOW         ""               FLOW     1.0      1.0      0.08
0184             FLOW         ""               FLOW     1.0      1.0      0.07
0178             FLOW         ""               FLOW     1.0      1.0      0.08
0157             FLOW         ""               FLOW     1.0      1.0      0.14
0144             FLOW         ""               FLOW     1.0      1.0      0.07
0141             FLOW         ""               FLOW     1.0      1.0      0.08
0253             FLOW         ""               FLOW     1.0      1.0      0.02
0251             FLOW         ""               FLOW     1.0      1.0      0.06
0067             FLOW         ""               FLOW     1.0      1.0      0.11
0077             FLOW         ""               FLOW     1.0      1.0      0.05
0315             FLOW         ""               FLOW     1.0      1.0      0.06
0257             FLOW         ""               FLOW     1.0      1.0      0.07
0272             FLOW         ""               FLOW     1.0      1.0      0.15
0376             FLOW         ""               FLOW     1.0      1.0      0.06
0282             FLOW         ""               FLOW     1.0      1.0      0.09
0297             FLOW         ""               FLOW     1.0      1.0      0.14
0306             FLOW         ""               FLOW     1.0      1.0      0.11
0283             FLOW         ""               FLOW     1.0      1.0      0.03
0134             FLOW         ""               FLOW     1.0      1.0      0.05
0191             FLOW         ""               FLOW     1.0      1.0      0.02
0197             FLOW         ""               FLOW     1.0      1.0      0.01
0229             FLOW         ""               FLOW     1.0      1.0      0.01
0222             FLOW         ""               FLOW     1.0      1.0      0.01
0214             FLOW         ""               FLOW     1.0      1.0      0.05

[COORDINATES]
;;Node           X-Coord            Y-Coord
;;-------------- ------------------ ------------------
0384             118.18             267.77            
0381             117.91             251.81            
0389             118.17             236.84            
0390             109.39             236.72            
0393             108.97             211.97            
0410             99.20              211.79            
0363             99.73              182.70            
0362             90.41              182.84            
0361             91.22              158.65            
0360             80.91              159.18            
0070             77.75              145.04            
0074             67.76              144.63            
0115             56.12              145.83            