;; SWMM5 .inp converted from XPSWMM .xp file
;; Generated by XPSWMM Card Reader
;; Source format: XP_CARD | Original title: Montague System Ultimate Build-out

[TITLE]
;;Project Title/Notes
Montague System Ultimate Build-out

[OPTIONS]
FLOW_UNITS           CFS
INFILTRATION         HORTON
FLOW_ROUTING         DYNWAVE
LINK_OFFSETS         DEPTH
MIN_SLOPE            0.0
ALLOW_PONDING        NO
SKIP_STEADY_STATE    NO
ROUTING_STEP         00:00:10
VARIABLE_STEP        0.75
INERTIAL_DAMPING     PARTIAL
NORMAL_FLOW_LIMITED  BOTH
MAX_TRIALS           50
HEAD_TOLERANCE       0.0033

[JUNCTIONS]
;;Name           Elev       MaxDepth   InitDepth  SurDepth   Aponded
;;-------------- ---------- ---------- ---------- ---------- ----------
10114            23.78      0          0          0          0
10309            17.65      0          0          0          0
10311            18.30      0          0          0          0
10313            21.14      0          0          0          0
10324            29.20      0          0          0          0
10329            29.69      0          0          0          0
10333            31.28      0          0          0          0
11403            30.17      0          0          0          0
11901            27.16      0          0          0          0
11903            25.11      0          0          0          0
11905            25.50      0          0          0          0
11906            24.70      0          0          0          0
12001            27.27      0          0          0          0
12003            25.23      0          0          0          0
12206            25.02      0          0          0          0
12301            23.81      0          0          0          0
12401            25.71      0          0          0          0
12802            17.04      0          0          0          0
12803            18.42      0          0          0          0
12804            17.43      0          0          0          0
12805            17.85      0          0          0          0
12902            17.96      0          0          0          0
12903            18.69      0          0          0          0
13506            17.62      0          0          0          0
13509            20.70      0          0          0          0
13516            25.23      0          0          0          0
13518            23.69      0          0          0          0
13519            24.33      0          0          0          0
13522            28.22      0          0          0          0
13523            29.37      0          0          0          0
13903            23.38      0          0          0          0
14002            18.88      0          0          0          0
14003            19.72      0          0          0          0
14102            17.54      0          0          0          0
14112            20.55      0          0          0          0
14113            20.94      0          0          0          0
14114            22.39      0          0          0          0
14115            21.62      0          0          0          0
14116            25.30      0          0          0          0
14119            27.97      0          0          0          0
14121            25.52      0          0          0          0
14122            25.46      0          0          0          0
14123            26.42      0          0          0          0
14124            27.90      0          0          0          0
14125            29.12      0          0          0          0
14127            31.36      0          0          0          0
14129            32.82      0          0          0          0
10000            25.00      0          0          0          0
10308            17.52      0          0          0          0
10310            17.55      0          0          0          0
10107            19.20      0          0          0          0
10106            18.00      0          0          0          0
10109            18.26      0          0          0          0
10110            19.41      0          0          0          0
10111            20.53      0          0          0          0
10112            23.10      0          0          0          0
10112A           23.50      0          0          0          0
10113            24.51      0          0          0          0
10115            24.90      0          0          0          0
10116            25.07      0          0          0          0
13507            17.98      0          0          0          0
13508            19.43      0          0          0          0
13510            21.00      0          0          0          0
13511            21.80      0          0          0          0
13513            23.30      0          0          0          0
13514            23.07      0          0          0          0
13515            23.95      0          0          0          0
14101            17.57      0          0          0          0
14110            21.00      0          0          0          0
14117            25.93      0          0          0          0
14118            27.05      0          0          0          0
10338            35.27      0          0          0          0
10337            35.33      0          0          0          0
10330            30.75      0          0          0          0
11401            30.24      0          0          0          0
11402            29.94      0          0          0          0
11404            31.79      0          0          0          0
11405            31.80      0          0          0          0
11501            30.55      0          0          0          0
11502            30.51      0          0          0          0
11201            34.30      0          0          0          0
11202            35.30      0          0          0          0
11203            35.94      0          0          0          0
11204            34.86      0          0          0          0
11908            26.48      0          0          0          0
11907            25.05      0          0          0          0
11902            25.60      0          0          0          0
10325            29.55      0          0          0          0
14125A           29.61      0          0          0          0
12901            17.86      0          0          0          0
12303            23.91      0          0          0          0
12302            23.07      0          0          0          0
12205            25.98      0          0          0          0
12204            24.14      0          0          0          0
12203            24.61      0          0          0          0
12202            24.08      0          0          0          0
10317            24.40      0          0          0          0
10319            23.79      0          0          0          0
10318            25.16      0          0          0          0
10316            23.36      0          0          0          0
12401A           26.00      0          0          0          0
10321            25.79      0          0          0          0
10314            22.86      0          0          0          0
12201A           20.92      0          0          0          0
10312            21.00      0          0          0          0
12201            22.00      0          0          0          0
13902            22.84      0          0          0          0
13901            23.96      0          0          0          0
13905            23.64      0          0          0          0
13904            23.24      0          0          0          0
13517            23.11      0          0          0          0
13520            25.36      0          0          0          0
14120            25.90      0          0          0          0
14126            29.24      0          0          0          0
14128            31.15      0          0          0          0
14401            30.84      0          0          0          0
14402            32.52      0          0          0          0
10323            27.97      0          0          0          0
10327            28.50      0          0          0          0
10331            29.61      0          0          0          0
10335            30.73      0          0          0          0
10336            30.33      0          0          0          0
10336A           35.00      0          0          0          0
10332            31.11      0          0          0          0
11701B           30.80      0          0          0          0
11701A           30.14      0          0          0          0
11702            28.28      0          0          0          0
11801            28.52      0          0          0          0
11802            29.62      0          0          0          0
11803            29.60      0          0          0          0
12005            25.53      0          0          0          0
10117            29.47      0          0          0          0
14603            32.91      0          0          0          0
14602            28.28      0          0          0          0
14601            25.80      0          0          0          0
12503            17.63      0          0          0          0
12101            19.59      0          0          0          0
12102            19.83      0          0          0          0
10339            35.00      0          0          0          0
R1               30.00      0          0          0          0
R2               31.00      0          0          0          0
R3               31.00      0          0          0          0
R4               30.00      0          0          0          0
R5               30.00      0          0          0          0
U12305           25.00      0          0          0          0
U12304           25.00      0          0          0          0
U12306           25.00      0          0          0          0
U12307           25.00      0          0          0          0
1000.4           24.00      0          5.60       0          0
midpoint         30.00      0          0          0          0
Pumpout          25.00      0          3.80       0          0

[STORAGE]
;;Name           Elev       MaxDepth   InitDepth  Shape      Curve/Params
;;-------------- ---------- ---------- ---------- ---------- ----------
10101            15.06      -0.11      2.63       FUNCTIONAL 0 0          0
10103            16.49      0          1.54       FUNCTIONAL 0 0          0
10105            16.24      0          0.25       FUNCTIONAL 0 0          0
10301            15.21      0          1.16       FUNCTIONAL 0 0          0
10302            15.70      0          0.48       FUNCTIONAL 0 0          0
10303            15.73      0          0.11       FUNCTIONAL 0 0          0
10304            17.06      0          0          FUNCTIONAL 0 0          0
10305            17.29      -3.31      0          FUNCTIONAL 0 0          0
11701            27.20      0          0          FUNCTIONAL 0 0          0
12801            16.39      -3.70      0          FUNCTIONAL 0 0          0
12904            17.76      -3.41      0          FUNCTIONAL 0 0          0
13202            15.87      0          0          FUNCTIONAL 0 0          0
13204            15.38      -4.50      0          FUNCTIONAL 0 0          0
13205            16.52      0          0          FUNCTIONAL 0 0          0
13501            15.11      -1.94      0          FUNCTIONAL 0 0          0
13504            15.79      0          0          FUNCTIONAL 0 0          0
13505            15.71      0          0          FUNCTIONAL 0 0          0
10102            14.61      -1.95      2.45       FUNCTIONAL 0 0          0
10104            14.88      -3.70      1.02       FUNCTIONAL 0 0          0
13203            16.27      0          0          FUNCTIONAL 0 0          0
13502            15.31      -1.74      0          FUNCTIONAL 0 0          0
13503            16.47      0          0          FUNCTIONAL 0 0          0
10207            15.29      0.42       0          FUNCTIONAL 0 0          0
10206            16.01      0          0          FUNCTIONAL 0 0          0
10205            15.15      0.54       0.02       FUNCTIONAL 0 0          0
10204            15.51      0          0.55       FUNCTIONAL 0 0          0
10203            15.14      0.20       0.71       FUNCTIONAL 0 0          0
10202            15.93      0          1.15       FUNCTIONAL 0 0          0
10201            15.35      0.90       1.42       FUNCTIONAL 0 0          0
13101            15.73      0          0          FUNCTIONAL 0 0          0
13102            17.09      0          0          FUNCTIONAL 0 0          0
12501            15.73      0.75       0          FUNCTIONAL 0 0          0
12502            15.80      0.62       0          FUNCTIONAL 0 0          0
wetwell          17.67      -2.10      12.00      FUNCTIONAL 2045.00 0          0

[CONDUITS]
;;Name           From             To               Length     Roughness  InOffset   OutOffset  InitFlow   MaxFlow
;;-------------- ---------------- ---------------- ---------- ---------- ---------- ---------- ---------- ----------
L13203           13203            13202            278.54     0.0150     7.86       7.25       0          0
L13204           13204            13203            141.60     0.0150     8.18       7.86       0          0
L13205           13205            13204            167.92     0.0150     8.47       8.18       0          0
L13501           13501            10107            163.82     0.0150     7.47       7.31       0          0
L10101           10101            10000            607.13     0.0150     3.37       2.30       0          0
L10103           10103            10102            691.95     0.0150     4.46       3.55       0          0
L10102           10102            10101            99.05      0.0150     3.55       3.37       0          0
L10302           10302            10301            477.75     0.0150     5.52       4.84       0          0
L10303           10303            10302            338.93     0.0150     5.89       5.52       0          0
L10304           10304            10303            542.36     0.0150     6.36       5.89       0          0
L10305           10305            10304            126.96     0.0150     6.78       6.36       0          0
L10308           10308            10305            570.88     0.0150     7.12       6.78       0          0
L10309           10309            10308            271.55     0.0150     7.50       7.12       0          0
L10310           10310            10309            393.68     0.0150     7.68       7.50       0          0
L10311           10311            10310            194.19     0.0150     7.86       7.68       0          0
CHME10313        10313            10312            22.00      0.0150     8.48       8.46       0          0
L10104           10104            10103            86.46      0.0150     4.99       4.46       0          0
L10107           10107            10106            224.00     0.0150     7.30       6.76       0          0
L10105           10105            10104            658.09     0.0150     5.76       4.98       0          0
L10106           10106            10105            415.00     0.0150     6.76       5.76       0          0
L14118           14118            14117            70.28      0.0150     10.51      16.97      0          0
L13514           13514            13513            502.00     0.0150     13.47      12.65      0          0
L13515           13515            13514            42.35      0.0150     8.72       13.47      0          0
L14101           14101            13503            393.54     0.0150     9.93       7.93       0          0
L14102           14102            14101            40.32      0.0150     10.05      9.93       0          0
L14112           14112            14110            405.00     0.0150     13.59      12.86      0          0
L12303           12303            12302            219.13     0.0150     13.48      12.85      0          0
L12302           12302            12301            546.31     0.0150     12.85      11.76      0          0
L12301           12301            12206            480.69     0.0150     11.76      10.80      0          0
L12206           12206            12205            40.40      0.0150     10.80      10.76      0          0
L12205           12205            12204            50.59      0.0150     10.76      10.71      0          0
L12204           12204            12203            123.48     0.0150     10.71      10.59      0          0
L12203           12203            12202            66.13      0.0150     10.59      10.50      0          0
CHME10319        10319            10318            56.91      0.0150     9.66       9.63       0          0
CHME10318        10318            10317            46.71      0.0150     9.63       9.57       0          0
L10317           10317            10316            26.73      0.0150     9.57       9.53       0          0
L12401           12401            12401A           215.13     0.0150     15.63      15.33      0          0
L12401A          ?                ?                259.06     0.0150     15.33      14.57      0          0
L10110           10110            10109            467.73     0.0150     9.35       8.35       0          0
L10111           10111            10110            594.91     0.0150     10.73      9.35       0          0
L10112           10112            10111            593.16     0.0150     12.05      10.73      0          0
L10112A          10112A           10112            68.14      0.0150     12.55      12.05      0          0
L10113           10113            10112            535.07     0.0150     13.41      12.05      0          0
L10114           10114            10113            564.21     0.0150     14.85      13.41      0          0
L10115           10115            10114            501.66     0.0150     16.20      14.85      0          0
L10116           10116            10115            490.17     0.0150     17.15      16.20      0          0
L13502           13502            13501            363.87     0.0150     7.87       7.47       0          0
L13503           13503            13502            68.08      0.0150     7.93       7.87       0          0
L13504           13504            13503            74.63      0.0150     8.01       7.93       0          0
L13505           13505            13504            319.56     0.0150     8.36       8.02       0          0
L13506           13506            13505            408.29     0.0150     8.79       8.36       0          0
L13507           13507            13506            491.07     0.0150     9.31       8.79       0          0
L13508           13508            13507            319.71     0.0150     9.79       9.31       0          0
L13509           13509            13508            384.60     0.0150     10.54      9.97       0          0
L13510           13510            13509            334.53     0.0150     11.05      10.54      0          0
L13511           13511            13510            411.60     0.0150     11.67      11.05      0          0
L12802           12802            12801            363.53     0.0150     8.97       8.49       0          0
L12803           12803            12802            225.35     0.0150     9.19       8.97       0          0
L12804           12804            12803            150.05     0.0150     9.42       9.19       0          0
L12805           12805            12804            368.56     0.0150     10.02      9.42       0          0
L12901           12901            12805            49.22      0.0150     10.07      10.02      0          0
L12902           12902            12901            186.51     0.0150     10.26      10.07      0          0
L12903           12903            12902            356.13     0.0150     10.97      10.26      0          0
L12904           12904            12903            329.29     0.0150     11.60      10.97      0          0
L14113           14113            14112            466.12     0.0150     14.37      13.59      0          0
L14114           14114            14113            281.37     0.0150     14.94      14.37      0          0
L14115           14115            14114            252.08     0.0150     15.39      14.94      0          0
L14116           14116            14115            321.12     0.0150     16.40      15.39      0          0
L14117           14117            14116            167.30     0.0150     16.97      16.40      0          0
L14119           14119            14118            42.61      0.0150     17.43      17.29      0          0
L14002           14002            13508            423.65     0.0150     11.51      10.59      0          0
L14003           14003            14002            329.13     0.0150     12.08      11.51      0          0
L14110           14110            14003            320.00     0.0150     12.66      12.08      0          0
L12801           12801            10309            80.47      0.0150     8.49       8.39       0          0
L12001           12001            10319            465.04     0.0150     15.53      14.29      0          0
L12003           12003            12001            198.22     0.0150     15.93      15.53      0          0
L10323           10323            10321            698.09     0.0150     13.20      9.83       0          0
CHME10321        10321            10319            228.94     0.0150     9.83       9.66       0          0
L10316           10316            10314            382.85     0.0150     9.53       8.75       0          0
L10314           10314            10313            402.63     0.0150     8.75       8.48       0          0
CHME12201A       12201A           10312            58.99      0.0150     9.30       8.95       0          0
L10312           10312            10311            673.37     0.0150     8.46       7.86       0          0
LL14119          14119            13905            195.50     0.0150     17.43      16.97      0          0
L13905           13905            13904            199.30     0.0150     16.97      16.52      0          0
L13904           13904            13903            279.06     0.0150     16.52      15.89      0          0
L13903           13903            13902            274.56     0.0150     15.89      15.76      0          0
L13902           13902            13901            136.41     0.0150     15.26      15.16      0          0
L13901           13901            13516            360.11     0.0150     15.16      14.51      0          0
L13516           13516            13515            61.50      0.0150     14.31      8.72       0          0
L13517           13517            13516            155.38     0.0150     14.67      14.51      0          0
L13518           13518            13517            351.05     0.0150     16.30      15.05      0          0
L13519           13519            13518            307.20     0.0150     17.20      16.30      0          0
L13520           13520            13519            315.98     0.0150     17.99      17.20      0          0
L13523           13523            13522            475.62     0.0150     20.93      20.09      0          0
L14121           14121            14120            346.86     0.0150     18.79      18.19      0          0
L14122           14122            14121            376.78     0.0150     19.39      18.79      0          0
L14123           14123            14122            284.11     0.0150     20.33      19.39      0          0
L14124           14124            14123            298.76     0.0150     21.64      20.83      0          0
L14125           14125            14124            305.28     0.0150     22.86      21.64      0          0
L14126           14126            14125A           196.23     0.0150     23.73      23.05      0          0
L14127           14127            14126            322.80     0.0150     24.66      23.73      0          0
L14401           14401            14127            76.95      0.0150     20.96      24.66      0          0
L14402           14402            14401            329.74     0.0150     26.27      25.31      0          0
L14128           14128            14127            111.71     0.0150     24.87      24.66      0          0
L14129           14129            14128            480.43     0.0150     26.32      24.87      0          0
L10324           10324            10323            342.03     0.0150     14.23      13.20      0          0
L10336           10336            10335            479.61     0.0150     21.49      19.90      0          0
L10336A          10336A           10336            380.00     0.0150     23.20      21.49      0          0
L10338           10338            10337            219.52     0.0150     24.29      23.40      0          0
L10337           10337            10336A           133.62     0.0150     23.40      23.20      0          0
L10331           10331            10330            214.52     0.0150     18.32      17.52      0          0
L11401           11401            10333            43.99      0.0150     19.59      19.42      0          0
L11402           11402            11401            321.25     0.0150     19.98      19.59      0          0
L11403           11403            11402            357.17     0.0150     21.03      19.98      0          0
L11404           11404            11403            336.65     0.0150     21.95      21.03      0          0
L11405           11405            11404            16.13      0.0150     22.01      21.95      0          0
L11501           11501            11405            69.72      0.0150     22.62      22.51      0          0
L11502           11502            11501            368.92     0.0150     23.20      22.62      0          0
L11201           11201            10338            82.56      0.0150     25.68      24.79      0          0
L11202           11202            11201            126.51     0.0150     26.56      25.68      0          0
L11203           11203            11202            242.18     0.0150     26.79      26.56      0          0
L11204           11204            11203            295.23     0.0150     27.08      26.79      0          0
L10327           10327            10325            439.42     0.0150     15.62      14.49      0          0
L10329           10329            10327            486.28     0.0150     16.74      15.62      0          0
L10330           10330            10329            264.16     0.0150     17.52      16.74      0          0
L10333           10333            10332            33.54      0.0150     18.67      18.56      0          0
L12201           12201            12201A           342.98     0.0150     9.31       9.30       0          0
LL12202          12202            12201            490.46     0.0150     10.50      9.31       0          0
L10335           10335            10333            300.67     0.0150     19.90      18.67      0          0
LL13520          13520            11908            28.16      0.0150     13.33      13.26      0          0
L11908           11908            11907            25.38      0.0150     21.02      20.96      0          0
L11907           11907            11906            346.29     0.0150     20.00      19.07      0          0
L11905           11905            11903            309.13     0.0150     17.83      17.06      0          0
L11902           11902            11901            403.01     0.0150     16.97      16.10      0          0
L11901           11901            10325            299.65     0.0150     16.10      15.36      0          0
L10325           10325            10324            102.36     0.0150     14.49      14.23      0          0
L14125A          14125A           14125            102.97     0.0150     23.05      22.86      0          0
L11906           11906            11905            113.78     0.0150     19.07      17.83      0          0
L11903           11903            11902            84.54      0.0150     17.06      16.97      0          0
L10332           10332            10331            146.25     0.0150     18.56      18.32      0          0
L11701B          11701B           10332            155.35     0.0150     19.02      18.56      0          0
L11701A          11701A           11701B           355.64     0.0150     19.59      19.02      0          0
L11701           11701            11701A           377.14     0.0150     20.33      19.59      0          0
L11702           11702            11701            77.09      0.0150     20.48      20.33      0          0
L11801           11801            11702            250.36     0.0150     20.98      20.48      0          0
L11802           11802            11801            346.31     0.0150     21.68      20.98      0          0
L11803           11803            11802            299.20     0.0150     22.29      21.68      0          0
514.1            14120            14119            64.00      0.0150     18.19      17.43      0          0
L13202           13202            10303            99.32      0.0150     7.25       7.03       0          0
L10109           10109            10107            464.40     0.0150     8.35       7.31       0          0
L13513           13513            13511            568.00     0.0150     12.65      11.67      0          0
L10202           10202            10201            105.00     0.0150     4.84       4.58       0          0
L10203           10203            10202            180.00     0.0150     5.29       4.84       0          0
L10204           10204            10203            78.00      0.0150     5.45       5.29       0          0
L10205           10205            10204            262.00     0.0150     5.97       5.45       0          0