;; SWMM5 .inp converted from XPSWMM .xp file
;; Generated by XPSWMM Card Reader
;; Source format: XP_CARD | Original title: TH10 & POLK ST.

[TITLE]
;;Project Title/Notes
TH10 & POLK ST.

[OPTIONS]
FLOW_UNITS           CFS
INFILTRATION         HORTON
FLOW_ROUTING         DYNWAVE
LINK_OFFSETS         DEPTH
MIN_SLOPE            0.0
ALLOW_PONDING        NO
SKIP_STEADY_STATE    NO
ROUTING_STEP         00:00:60
VARIABLE_STEP        0.75
INERTIAL_DAMPING     PARTIAL
NORMAL_FLOW_LIMITED  BOTH
MAX_TRIALS           50

[JUNCTIONS]
;;Name           Elev       MaxDepth   InitDepth  SurDepth   Aponded
;;-------------- ---------- ---------- ---------- ---------- ----------
90               912.50     0          0          0          0
22               899.40     0          0          0          0
17-17.3          904.30     0          0          0          0
16-17            903.80     0          0          0          0
28               903.25     0          0          0          0
30               898.20     0          0          0          0
15-15.3          899.70     0          0          0          0
14-15            899.40     0          0          0          0
13-14            899.70     0          0          0          0
12-13            899.90     0          0          0          0
11-12            902.70     0          0          0          0
10-11            906.30     0          0          0          0
9-10             905.90     0          0          0          0
8-9              903.50     0          0          0          0
133              912.50     0          0          0          0
135              908.00     0          0          0          0
137              908.00     0          0          0          0
141              910.10     0          0          0          0
143              910.10     0          0          0          0
145              906.50     0          0          0          0
147              903.20     0          0          0          0
149              905.90     0          0          0          0
151              905.90     0          0          0          0
153              902.85     0          0          0          0
155              907.80     0          0          0          0
157              911.60     0          0          0          0
inflow5          903.20     0          0          0          0
163              898.80     0          0          0          0
173              904.10     0          0          0          0
175              912.95     0          0          0          0
177              908.00     0          0          0          0
179              908.00     0          0          0          0
181              908.00     0          0          0          0
183              908.40     0          0          0          0
185              908.20     0          0          0          0
187              957.20     0          0          0          0
189              956.50     0          0          0          0
191              910.00     0          0          0          0
193              910.40     0          0          0          0
195              910.30     0          0          0          0
197              910.20     0          0          0          0
199              910.20     0          0          0          0
201              910.30     0          0          0          0

[STORAGE]
;;Name           Elev       MaxDepth   InitDepth  Shape      Curve/Params
;;-------------- ---------- ---------- ---------- ---------- ----------
17-5             909.42     -12.52     0          FUNCTIONAL 0 0          0
139              910.10     -12.80     0          FUNCTIONAL 0 0          0
out5             907.03     0          0          FUNCTIONAL 0 0          0
out5a            898.00     -6.00      0          FUNCTIONAL 0 0          0
170              910.00     0          0          FUNCTIONAL 0 0          0
172              904.00     0          0          FUNCTIONAL 0 0          0

[CONDUITS]
;;Name           From             To               Length     Roughness  InOffset   OutOffset  InitFlow   MaxFlow
;;-------------- ---------------- ---------------- ---------- ---------- ---------- ---------- ---------- ----------
SCHOOL           17-5             22               70.00      0.0240     892.82     892.67     0          0
CS               22               17-17.3          145.00     0          892.80     892.70     0          0
CS               17-17.3          16-17            385.00     0          892.70     892.20     0          0
CS               16-17            28               285.00     0          892.20     891.95     0          0
JEFF             28               30               119.00     0.0120     891.95     891.80     0          0
CS               30               15-15.3          165.00     0          891.80     891.70     0          0
CS               15-15.3          14-15            190.00     0          891.70     891.40     0          0
CS               14-15            13-14            270.00     0          891.40     891.30     0          0
CS               13-14            12-13            275.00     0          891.30     890.80     0          0
CS               12-13            11-12            260.00     0          890.80     890.70     0          0
CS               11-12            10-11            180.00     0          890.80     890.80     0          0
CS               10-11            9-10             200.00     0          890.80     890.40     0          0
CS               9-10             8-9              120.00     0          890.40     890.10     0          0
127              8-9              inflow5          680.00     0          890.10     889.80     0          0
CS24.3           90               133              300.00     0          894.20     894.20     0          0
CS               133              135              300.00     0          894.20     893.90     0          0
CS               135              137              400.00     0          893.90     893.80     0          0
CS22             137              139              500.00     0          893.80     893.17     0          0
Polk-            139              141              82.00      0.0240     893.17     892.97     0          0
144              141              143              150.00     0          894.70     893.20     0          0
146              143              145              115.00     0          894.70     894.70     0          0
Tyler-           145              147              71.00      0.0120     893.05     893.05     0          0
150              147              149              290.00     0          894.60     893.00     0          0
152              149              151              115.00     0          894.60     894.60     0          0
Van              151              153              71.00      0.0120     892.78     892.57     0          0
156              153              155              480.00     0          893.90     893.90     0          0
158              155              157              250.00     0          895.00     895.00     0          0
161              157              17-5             325.00     0          895.00     892.82     0          0
17=5             inflow5          163              105.00     0.0240     889.80     889.33     0          0
166              163              out5             10.00      0.0140     889.80     889.80     0          0
17=5a            163              out5a            574.00     0.0140     889.15     888.45     0          0
ClvPrkw          170              90               109.00     0.0120     892.96     892.78     0          0
99th             172              173              65.00      0.0120     900.75     900.21     0          0
34.3             173              175              125.00     0          900.75     900.75     0          0
34               175              177              130.00     0          900.75     895.80     0          0
33               177              179              130.00     0          895.80     895.80     0          0
Pierce           179              181              74.00      0.0140     895.50     895.50     0          0
32.2             181              183              265.00     0          895.80     895.80     0          0
32               183              185              260.00     0          895.80     895.40     0          0
31               185              187              260.00     0          895.40     895.20     0          0
97th             187              189              88.00      0.0120     895.20     894.50     0          0
30.3             189              191              420.00     0          894.50     894.50     0          0
-30              191              193              400.00     0          894.60     894.60     0          0
29               193              195              400.00     0          894.60     894.20     0          0
-28              195              197              100.00     0          894.20     893.90     0          0
27               197              199              390.00     0          893.90     893.70     0          0
26               199              201              300.00     0          893.70     893.50     0          0
25               201              170              250.00     0          893.50     893.20     0          0

[XSECTIONS]
;;Link           Shape        Geom1      Geom2      Geom3      Geom4      Barrels
;;-------------- ------------ ---------- ---------- ---------- ---------- ----------
SCHOOL           CIRCULAR     4.00       0          0          0          1
CS               IRREGULAR    0          0          0          0          1
CS               IRREGULAR    0          0          0          0          1
CS               IRREGULAR    0          0          0          0          1
JEFF             CUSTOM       3.00       0          0          0          1
CS               IRREGULAR    0          0          0          0          1
CS               IRREGULAR    0          0          0          0          1
CS               IRREGULAR    0          0          0          0          1
CS               IRREGULAR    0          0          0          0          1
CS               IRREGULAR    0          0          0          0          1
CS               IRREGULAR    0          0          0          0          1
CS               IRREGULAR    0          0          0          0          1
CS               IRREGULAR    0          0          0          0          1
127              IRREGULAR    0          0          0          0          1
CS24.3           IRREGULAR    0          0          0          0          1
CS               IRREGULAR    0          0          0          0          1
CS               IRREGULAR    0          0          0          0          1
CS22             IRREGULAR    0          0          0          0          1
Polk-            CIRCULAR     4.00       0          0          0          1
144              IRREGULAR    0          0          0          0          1
146              IRREGULAR    0          0          0          0          1
Tyler-           CUSTOM       3.75       0          0          0          1
150              IRREGULAR    0          0          0          0          1
152              IRREGULAR    0          0          0          0          1
Van              CUSTOM       3.75       0          0          0          1
156              IRREGULAR    0          0          0          0          1
158              IRREGULAR    0          0          0          0          1
161              IRREGULAR    0          0          0          0          1
17=5             CUSTOM       3.00       0          0          0          1
166              TRAPEZOIDAL  9.00       5.00       0          0          1
17=5a            CUSTOM       2.67       0          0          0          2
ClvPrkw          CUSTOM       0          0          0          0          2
99th             CIRCULAR     1.50       0          0          0          1
34.3             IRREGULAR    0          0          0          0          1
34               IRREGULAR    0          0          0          0          1
33               IRREGULAR    0          0          0          0          1
Pierce           CUSTOM       0          0          0          0          1
32.2             IRREGULAR    0          0          0          0          1
32               IRREGULAR    0          0          0          0          1
31               IRREGULAR    0          0          0          0          1
97th             HORSESHOE    62.00      0          0          0          2
30.3             IRREGULAR    0          0          0          0          1
-30              IRREGULAR    0          0          0          0          1
29               IRREGULAR    0          0          0          0          1
-28              IRREGULAR    0          0          0          0          1
27               IRREGULAR    0          0          0          0          1
26               IRREGULAR    0          0          0          0          1
25               IRREGULAR    0          0          0          0          1

[LOSSES]
;;Link           Inlet      Outlet     Average    Flap Gate
;;-------------- ---------- ---------- ---------- ----------
SCHOOL           0          0          0          NO
CS               0          0          0          NO
CS               0          0          0          NO
CS               0          0          0          NO
JEFF             0          0          0          NO
CS               0          0          0          NO
CS               0          0          0          NO
CS               0          0          0          NO
CS               0          0          0          NO
CS               0          0          0          NO
CS               0          0          0          NO
CS               0          0          0          NO
CS               0          0          0          NO
127              0          0          0          NO
CS24.3           0          0          0          NO
CS               0          0          0          NO
CS               0          0          0          NO
CS22             0          0          0          NO
Polk-            0          0          0          NO
144              0          0          0          NO
146              0          0          0          NO
Tyler-           0          0          0          NO
150              0          0          0          NO
152              0          0          0          NO
Van              0          0          0          NO
156              0          0          0          NO
158              0          0          0          NO
161              0          0          0          NO
17=5             0          0          0          NO
166              0          0          0          NO
17=5a            0          0          0          NO
ClvPrkw          0          0          0          NO
99th             0          0          0          NO
34.3             0          0          0          NO
34               0          0          0          NO
33               0          0          0          NO
Pierce           0          0          0          NO
32.2             0          0          0          NO
32               0          0          0          NO
31               0          0          0          NO
97th             0          0          0          NO
30.3             0          0          0          NO
-30              0          0          0          NO
29               0          0          0          NO
-28              0          0          0          NO
27               0          0          0          NO
26               0          0          0          NO
25               0          0          0          NO

[COORDINATES]
;;Node           X-Coord            Y-Coord
;;-------------- ------------------ ------------------
17-5             -23.98             -65.04            
90               -160.41            100.66            
22               56.30              -56.53            
17-17.3          117.26             -1.98             
16-17            157.09             59.77             
28               157.33             118.16            
30               143.20             194.06            
15-15.3          159.36             272.47            
14-15            201.21             227.93            
13-14            256.69             246.53            
12-13            245.49             170.09            
11-12            232.33             118.21            
10-11            214.34             61.24             
9-10             184.43             21.61             
8-9              202.13             -26.18            
133              -164.83            4.51              
135              -130.59            -81.57            
137              -100.76            -13.81            
139              -123.96            72.27             
141              -88.62             90.59             
143              -102.97            198.64            
145              -45.54             221.53            
147              1.95               235.27            
149              57.18              239.85            
151              95.84              173.00            
153              1.95               132.71            
155              -30.08             60.37             
157              -36.70             8.17              
inflow5          269.48             -14.83            
163              299.30             27.40             
out5             336.85             11.83             
out5a            314.76             103.41            
170              -184.13            189.73            
172              -377.52            239.67            
173              -380.46            167.35            
175              -379.48            116.96            
177              -379.48            55.20             
179              -372.62            -4.12             
181              -370.66            -66.69            
183              -320.67            -71.56            
185              -277.55            -28.49            
187              -325.57            35.70             
189              -323.61            95.02             
191              -318.71            150.28            
193              -318.71            218.54            
195              -279.51            241.29            
197              -276.57            292.49            
199              -221.68            284.36            
201              -234.42            229.11            

[MAP]
DIMENSIONS -380.46 -81.57 336.85 292.49
Units      None

[REPORT]
INPUT            YES
SUBCATCHMENTS    ALL
NODES            ALL
LINKS            ALL



