;; SWMM5 .inp converted from XPSWMM .xp file
;; Generated by XPSWMM Card Reader
;; Source format: XP_CARD | Original title: THUNDER BAY PPCP

[TITLE]
;;Project Title/Notes
THUNDER BAY PPCP

[OPTIONS]
FLOW_UNITS           CMS
INFILTRATION         HORTON
FLOW_ROUTING         DYNWAVE
LINK_OFFSETS         DEPTH
MIN_SLOPE            0.0
ALLOW_PONDING        NO
SKIP_STEADY_STATE    NO
ROUTING_STEP         00:00:15
VARIABLE_STEP        0.75
INERTIAL_DAMPING     PARTIAL
NORMAL_FLOW_LIMITED  BOTH
MAX_TRIALS           100
HEAD_TOLERANCE       .001

[JUNCTIONS]
;;Name           Elev       MaxDepth   InitDepth  SurDepth   Aponded
;;-------------- ---------- ---------- ---------- ---------- ----------
RRK1             185.50     0          0          0          0
KAMMH1           185.50     0          0          0          0
KAMMH28A         184.90     0          0          0          0
KAMMH29          185.40     0          0          0          0
KAMMH33          184.40     0          0          0          0
KAMMH31          184.20     0          0          0          0
KAMMH32          184.20     0          0          0          0
219              183.00     0          0          0          0
tbwwtp           183.00     0          0          0          0
CAMMH2           185.60     0          0          0          0
RK1              185.11     0          0          0          0
RK1OVF           185.50     0          0          0          0
D-RK1            185.26     0          0          0          0
RRK2             186.60     0          0          0          0
RK2              186.60     0          0          0          0
D-RK2            186.70     0          0          0          0
RK2OVF           186.60     0          0          0          0
RRK3             185.70     0          0          0          0
D-RK3            185.70     0          0          0          0
RK3              185.70     0          0          0          0
RK3OVF           185.70     0          0          0          0
RRK4             187.40     0          0          0          0
RK4              187.50     0          0          0          0
D-RK4            187.50     0          0          0          0
RK4OVF           187.50     0          0          0          0
RRK5             187.30     0          0          0          0
D-RK5            187.30     0          0          0          0
RK5              187.30     0          0          0          0
RK5OVF           187.30     0          0          0          0
RRK6             187.50     0          0          0          0
RK6              187.50     0          0          0          0
D-RK6            187.50     0          0          0          0
RK6OVF           187.50     0          0          0          0
RRK7             187.88     0          0          0          0
RK7              187.88     0          0          0          0
D-RK7            187.88     0          0          0          0
RK7OVF           187.88     0          0          0          0
KAMNODE1         187.88     0          0          0          0
KAMNODE2         187.20     0          0          0          0
RRK8             187.20     0          0          0          0
RK8              188.20     0          0          0          0
D-RK8            187.46     0          0          0          0
RK8OVF           188.20     0          0          0          0
RRK9             188.50     0          0          0          0
O2               188.62     0          0          0          0
RK9              188.40     0          0          0          0
RK9OVF           188.40     0          0          0          0
KAMMH2           189.00     0          0          0          0
RRK10            190.13     0          0          0          0
RK10             189.20     0          0          0          0
RK10OVF          189.20     0          0          0          0
KAMMH11          193.10     0          0          0          0
RRK12            193.20     0          0          0          0
RK12             193.66     0          0          0          0
RK11OVF          193.20     0          0          0          0
KAMMH13          193.20     0          0          0          0
wwtpovf          183.00     0          0          0          0
WMMH1            185.00     0          0          0          0
CAMMH4           185.40     0          0          0          0
CAMMH3           186.60     0          0          0          0
CAM-MAY          185.80     0          0          0          0
CAMMH2A          185.90     0          0          0          0
CAM-BRODIE       185.80     0          0          0          0
CAMMH1           185.80     0          0          0          0
CAM-SYND         185.80     0          0          0          0
CAMMH2B          186.00     0          0          0          0
CAMMH3A          186.00     0          0          0          0
CAMMH4A          186.00     0          0          0          0
CAMMH5           186.00     0          0          0          0
www              184.10     0          0          0          0
WMMH3            184.50     0          0          0          0
WMMH4            185.30     0          0          0          0
WMMH5            187.60     0          0          0          0
WMMH6            187.60     0          0          0          0
WMMH7            188.80     0          0          0          0
NMH2             184.06     0          0          0          0
NMH3             184.00     0          0          0          0
NMH4             185.30     0          0          0          0
RN20             185.90     0          0          0          0
RN1OVF           185.50     0          0          0          0
NMH5             184.92     0          0          0          0
NMH6             184.60     0          0          0          0
NMH7             184.70     0          0          0          0
NMH8             184.80     0          0          0          0
NMH9             185.40     0          0          0          0
NMH11            185.30     0          0          0          0
NMH10            185.20     0          0          0          0
RN21             185.50     0          0          0          0
RN21-O           190.00     0          0          0          0
RN22             185.20     0          0          0          0
RN24             185.80     0          0          0          0
RN24-O           190.00     0          0          0          0
NMH12            185.40     0          0          0          0
RN25             185.50     0          0          0          0
RN25-O           190.00     0          0          0          0
NMH13            185.10     0          0          0          0
NMH14            185.60     0          0          0          0
RN27             185.28     0          0          0          0
RN27-O           190.00     0          0          0          0
NMH15            184.30     0          0          0          0
RN28             184.30     0          0          0          0
RN28-O           184.30     0          0          0          0
NMH16            185.80     0          0          0          0
NMH17            185.80     0          0          0          0
NMH18            185.70     0          0          0          0
RN29             185.70     0          0          0          0
NMH19            186.20     0          0          0          0
RN30             185.90     0          0          0          0
RN32-O           190.00     0          0          0          0
NMH20            186.40     0          0          0          0
NMH21            186.50     0          0          0          0
NMH22            184.20     0          0          0          0
NMH23            186.80     0          0          0          0
BCMH8            185.90     0          0          0          0
BCMH7            186.10     0          0          0          0
BCMH6            186.10     0          0          0          0
BCMH5            186.10     0          0          0          0
BCMH4            183.50     0          0          0          0
BCMH3            184.20     0          0          0          0
BCMH2            185.90     0          0          0          0
BCMH1            185.50     0          0          0          0
BCMH9            186.10     0          0          0          0
DTMH1            186.60     0          0          0          0
DTMH2            186.60     0          0          0          0
DTMH3            185.70     0          0          0          0
DTMH4            187.50     0          0          0          0
FMH1             188.80     0          0          0          0
FMH2             188.10     0          0          0          0
FMH3             187.80     0          0          0          0
TARMH1           189.00     0          0          0          0
Ford             190.24     0          0          0          0
Brock            189.10     0          0          0          0
Mary             189.78     0          0          0          0
P12              188.70     0          0          0          0
Christina        189.32     0          0          0          0
lt1              188.70     0          0          0          0
vict             188.40     0          0          0          0
sills            188.20     0          0          0          0
a1               188.20     0          0          0          0
arthur           188.10     0          0          0          0
r1               188.00     0          0          0          0
ridge            188.20     0          0          0          0
ridovf           188.20     0          0          0          0
d-rid            189.30     0          0          0          0
isa              188.30     0          0          0          0
d-isa            188.50     0          0          0          0
m1               188.40     0          0          0          0
mood             189.20     0          0          0          0
mood-ovf         189.20     0          0          0          0
walsh            188.80     0          0          0          0
D-RK12           193.20     0          0          0          0
D-RN27           185.35     0          0          0          0
D-RN25           186.50     0          0          0          0
D-RN22           185.19     0          0          0          0
D-RN21           186.60     0          0          0          0
D-RN20           185.01     0          0          0          0
D-RN24           185.59     0          0          0          0
D-RN33           186.50     0          0          0          0
RN33             186.50     0          0          0          0
RN33-O           186.50     0          0          0          0
D-RN28           184.30     0          0          0          0
103n             187.27     0          0.10       0          0
478n             186.51     0          0.10       0          0
105n             189.62     0          0.10       0          0
107n             191.72     0          0.10       0          0
108n             193.55     0          0.10       0          0
110n             195.99     0          0.10       0          0
111n             197.81     0          0.10       0          0
114n             198.58     0          0.10       0          0
115n             200.44     0          0.10       0          0
116n             204.13     0          0.10       0          0
117n             208.06     0          0.10       0          0
118n             209.25     0          0.10       0          0
120n             213.60     0          0.10       0          0
121n             214.61     0          0.10       0          0
122n             217.32     0          0.10       0          0
123n             217.38     0          0.10       0          0
124n             217.20     0          0.10       0          0
125n             217.69     0          0.10       0          0
126n             221.10     0          0.10       0          0
129n             222.84     0          0.10       0          0
130n             223.08     0          0.10       0          0
132n             222.75     0          0.10       0          0
133n             222.69     0          0.10       0          0
134n             222.20     0          0.10       0          0
135n             221.65     0          0.10       0          0
136n             224.64     0          0.10       0          0
137n             226.44     0          0.10       0          0
138n             228.54     0          0.10       0          0
139n             229.03     0          0.10       0          0
140n             229.45     0          0.10       0          0
141n             230.98     0          0.10       0          0
143n             235.00     0          0.10       0          0
144n             236.28     0          0.10       0          0
146n             237.13     0          0.10       0          0
147n             238.72     0          0.10       0          0
854              233.54     0          0          0          0
479n             186.08     0          0.10       0          0
480n             185.99     0          0.10       0          0
481n             185.65     0          0.10       0          0
482n             185.62     0          0.10       0          0
483n             185.65     0          0.10       0          0
484n             185.50     0          0.10       0          0
485n             185.47     0          0.10       0          0
486n             185.50     0          0.10       0          0
487n             185.29     0          0.10       0          0
488n             185.20     0          0.10       0          0
489n             185.26     0          0.10       0          0
490n             185.47     0          0.10       0          0
491n             185.65     0          0.10       0          0
492n             185.26     0          0.10       0          0
493n             185.26     0          0.10       0          0
494n             185.10     0          0.10       0          0
495n             185.17     0          0.10       0          0
496n             185.17     0          0.10       0          0
497n             185.14     0          0.10       0          0
498n             184.68     0          0.10       0          0
499n             184.56     0          0.10       0          0
1500             184.53     0          0.10       0          0
1501             184.47     0          0.10       0          0
1502             185.84     0          0.10       0          0
1600             183.80     0          0          0          0
pump             183.80     0          0          0          0
401n             238.02     0          0.03       0          0
402n             237.62     0          0.03       0          0
404n             237.47     0          0.03       0          0
406n             235.98     0          0.03       0          0
407n             235.67     0          0.03       0          0
408n             233.60     0          0.10       0          0
409n             234.76     0          0.10       0          0
410n             232.10     0          0.10       0          0
412n             231.34     0          0.10       0          0
413n             231.07     0          0.10       0          0
415n             230.12     0          0.10       0          0
417n             230.43     0          0.10       0          0
418n             229.79     0          0.10       0          0
419n             230.25     0          0.10       0          0
421n             231.22     0          0.10       0          0
422n             230.25     0          0.10       0          0
423n             228.78     0          0.10       0          0
424n             225.55     0          0.10       0          0
426n             224.94     0          0.10       0          0
427n             226.28     0          0.10       0          0
428n             225.92     0          0.10       0          0
430n             224.21     0          0.10       0          0
431n             222.53     0          0.10       0          0
432n             222.23     0          0.10       0          0
434n             220.77     0          0.10       0          0
436n             220.31     0          0.10       0          0
437n             215.65     0          0.10       0          0
438n             213.79     0          0.10       0          0
439n             213.12     0          0.10       0          0
440n             212.38     0          0.10       0          0
441n             212.63     0          0.10       0          0
442n             211.84     0          0.10       0          0
443n             209.31     0          0.10       0          0
445n             207.72     0          0.10       0          0
446n             207.17     0          0.10       0          0
447n             204.52     0          0.10       0          0
449n             204.52     0          0.10       0          0
451n             199.61     0          0.10       0          0
453n             195.13     0          0.10       0          0
454n             190.19     0          0.10       0          0
455n             189.98     0          0.10       0          0
458n             187.76     0          0.10       0          0
459n             186.38     0          0.10       0          0
460n             186.08     0          0.10       0          0
462n             186.23     0          0.10       0          0
463n             187.45     0          0.10       0          0
464n             187.73     0          0.10       0          0
465n             187.48     0          0.10       0          0
466n             187.45     0          0.10       0          0
468n             186.69     0          0.10       0          0
470n             187.12     0          0.10       0          0
471n             186.14     0          0.10       0          0
472n             186.29     0          0.10       0          0
473n             186.05     0          0.10       0          0
474n             187.03     0          0.10       0          0
475n             187.03     0          0.10       0          0
476n             187.57     0          0.10       0          0
477n             186.17     0          0.10       0          0
301n             206.26     0          0.10       0          0
303n             200.34     0          0.10       0          0
304n             198.30     0          0.10       0          0
305n             196.32     0          0.10       0          0
306n             196.72     0          0.10       0          0
307n             196.72     0          0.10       0          0
308n             197.02     0          0.10       0          0
309n             197.75     0          0.10       0          0
310n             198.52     0          0.10       0          0
311n             198.43     0          0.10       0          0
312n             195.77     0          0.10       0          0
313n             194.86     0          0.10       0          0
314n             194.68     0          0.10       0          0
315n             193.88     0          0.10       0          0
316n             193.18     0          0.10       0          0
317n             192.60     0          0.10       0          0
318n             190.19     0          0.10       0          0
319n             190.00     0          0.10       0          0
320n             189.95     0          0.10       0          0
321n             190.80     0          0.10       0          0
322n             190.62     0          0.10       0          0
323n             189.71     0          0.10       0          0
324n             189.10     0          0.10       0          0
325n             188.85     0          0.10       0          0
326n             188.55     0          0.10       0          0
328n             187.85     0          0.10       0          0
329n             187.88     0          0.10       0          0
330n             190.68     0          0.10       0          0
331n             191.11     0          0.10       0          0
332n             189.74     0          0.10       0          0
333n             187.76     0          0.10       0          0
334n             188.12     0          0.10       0          0
335n             187.82     0          0.10       0          0
336n             188.18     0          0.10       0          0
337n             187.40     0          0.10       0          0
338n             186.54     0          0.10       0          0
340n             187.94     0          0.10       0          0
361n             188.46     0          0          0          0
363n             190.46     0          0          0          0
OVF1n            189.07     0          0          0          0
197n             222.87     0          0          0          0
196n             222.32     0          0          0          0
195n             218.97     0          0          0          0
194n             217.50     0          0          0          0
193n             217.10     0          0          0          0
191n             217.41     0          0          0          0
190n             217.32     0          0          0          0
189n             215.07     0          0          0          0
187n             210.53     0          0          0          0
186n             209.09     0          0          0          0
184n             208.09     0          0          0          0
183n             204.52     0          0          0          0
182n             200.35     0          0          0          0
K10-S            187.51     0          0          0          0
K7-S             187.31     0          0          0          0
K5-S             187.32     0          0          0          0
K3A-S            187.08     0          0          0          0
K3B-S            187.16     0          0          0          0
K3-S             186.96     0          0          0          0
K2-S             186.60     0          0          0          0
K28-S            188.67     0          0          0          0
K27-S            188.44     0          0          0          0
K26-S            188.13     0          0          0          0
K25-S            187.98     0          0          0          0
K24-S            188.09     0          0          0          0
K21-S            187.97     0          0          0          0
K18-S            187.83     0          0          0          0
K15-S            187.87     0          0          0          0
K4-S             187.22     0          0          0          0
k-am             185.00     0          0          0          0
prepump          185.00     0          0          0          0
pump-o           200.00     0          0          0          0
7B-2             184.88     0          0          0          0
7A               184.52     0          0          0          0
7B-1             185.01     0          0          0          0
D-RN26           185.10     0          0          0          0
KAM              185.00     0          0          0          0
Amelia           189.00     0          0          0          0
Edward           191.16     0          0          0          0
Brown            191.48     0          0          0          0
G2A              185.79     0          0          0          0
G2               185.78     0          0          0          0
G3               185.99     0          0          0          0
G4               185.98     0          0          0          0
E3               184.95     0          0          0          0
S2               185.04     0          0          0          0
S41              184.58     0          0          0          0
s3               184.88     0          0          0          0
S5               185.25     0          0          0          0
S6               184.91     0          0          0          0
S7               185.53     0          0          0          0
Q8               184.79     0          0          0          0
Q3               184.88     0          0          0          0
Q4               184.88     0          0          0          0
Q5               184.82     0          0          0          0
Q6               183.21     0          0          0          0
Q7               183.60     0          0          0          0
D3               185.14     0          0          0          0
D2               185.07     0          0          0          0
D4               184.98     0          0          0          0
D5               184.95     0          0          0          0
D6               185.13     0          0          0          0
F7               185.60     0          0          0          0
F31              185.59     0          0          0          0
F8               185.83     0          0          0          0
F4               185.82     0          0          0          0
F10              186.11     0          0          0          0
F11              186.28     0          0          0          0
B2               185.09     0          0          0          0
C1               184.20     0          0          0          0
C5               184.55     0          0          0          0
C6               184.79     0          0          0          0
C2               184.43     0          0          0          0
C3               184.09     0          0          0          0
C4               184.67     0          0          0          0
P7               189.13     0          0          0          0
P6               189.07     0          0          0          0
P5               189.34     0          0          0          0
P4               189.36     0          0          0          0
P9               189.15     0          0          0          0
P10              189.04     0          0          0          0
P13              188.60     0          0          0          0
P20              189.61     0          0          0          0
P19              189.61     0          0          0          0
P15              189.40     0          0          0          0
P14              189.40     0          0          0          0
P18              189.49     0          0          0          0
P17              189.31     0          0          0          0
P16              189.91     0          0          0          0
P24              190.07     0          0          0          0
1383             190.31     0          0          0          0
P28              190.63     0          0          0          0
P31              190.22     0          0          0          0
P30              190.55     0          0          0          0
P29              190.32     0          0          0          0
P34              190.28     0          0          0          0
P33              190.46     0          0          0          0
P32              190.32     0          0          0          0
P35              190.37     0          0          0          0
P49              190.84     0          0          0          0
P53              190.77     0          0          0          0
P38              191.48     0          0          0          0
P39              190.73     0          0          0          0
P47              191.38     0          0          0          0
P46              191.50     0          0          0          0
P43              191.72     0          0          0          0
P42              191.60     0          0          0          0
P45              192.25     0          0          0          0
P44              192.57     0          0          0          0
P41              192.72     0          0          0          0
P40              191.97     0          0          0          0
P52              191.59     0          0          0          0
P51              191.62     0          0          0          0
P50              191.40     0          0          0          0
P56              191.56     0          0          0          0
P55              191.41     0          0          0          0
P54              190.98     0          0          0          0
P63              190.20     0          0          0          0
P60              190.19     0          0          0          0
P58              190.31     0          0          0          0
P57              190.62     0          0          0          0
P59              190.68     0          0          0          0
P59A             190.31     0          0          0          0
P62              190.55     0          0          0          0
P61              189.97     0          0          0          0
O13              189.18     0          0          0          0
O10              188.69     0          0          0          0
O6               188.50     0          0          0          0
O15              189.38     0          0          0          0
O14              189.15     0          0          0          0
O12              189.06     0          0          0          0
O11              188.79     0          0          0          0
O9               189.16     0          0          0          0
O8               188.69     0          0          0          0
O7               188.71     0          0          0          0
O5               188.54     0          0          0          0
O4               188.62     0          0          0          0
O3               188.71     0          0          0          0
N31              188.22     0          0          0          0
N41              187.75     0          0          0          0
N51              188.18     0          0          0          0
N61              187.93     0          0          0          0
N71              188.12     0          0          0          0
N91              188.88     0          0          0          0