;; SWMM5 .inp converted from XPSWMM .xp file
;; Generated by XPSWMM Card Reader
;; Source format: XP_CARD | Original title: (none)

[TITLE]
;;Project Title/Notes
Converted from XPSWMM .xp file

[OPTIONS]
FLOW_UNITS           CFS
INFILTRATION         HORTON
FLOW_ROUTING         DYNWAVE
LINK_OFFSETS         DEPTH
MIN_SLOPE            0.0
ALLOW_PONDING        NO
SKIP_STEADY_STATE    NO
INERTIAL_DAMPING     PARTIAL
NORMAL_FLOW_LIMITED  BOTH

[JUNCTIONS]
;;Name           Elev       MaxDepth   InitDepth  SurDepth   Aponded
;;-------------- ---------- ---------- ---------- ---------- ----------
1939             0          0          0          0          0
1940             0          0          0          0          0
1959             0          0          0          0          0
1960             0          0          0          0          0
1961             0          0          0          0          0
1962             0          0          0          0          0
1963             0          0          0          0          0
1964             0          0          0          0          0
568              0          0          0          0          0
569              0          0          0          0          0
570              0          0          0          0          0
571              0          0          0          0          0
572              0          0          0          0          0
573              0          0          0          0          0
574              0          0          0          0          0
1965             0          0          0          0          0
1966             0          0          0          0          0
1958             0          0          0          0          0
1970             0          0          0          0          0
222              0          0          0          0          0
221Node          0          0          0          0          0
1967             0          0          0          0          0
1968             0          0          0          0          0
1969             0          0          0          0          0
575              0          0          0          0          0
578              0          0          0          0          0
576              0          0          0          0          0
577              0          0          0          0          0
579              0          0          0          0          0
580              0          0          0          0          0
581              0          0          0          0          0
582              0          0          0          0          0
591              0          0          0          0          0
583              0          0          0          0          0
584              0          0          0          0          0
585              0          0          0          0          0
592              0          0          0          0          0
586              0          0          0          0          0
593              0          0          0          0          0
587              0          0          0          0          0
594              0          0          0          0          0
588              0          0          0          0          0
596              0          0          0          0          0
595              0          0          0          0          0
589              0          0          0          0          0
597              0          0          0          0          0
590              0          0          0          0          0
598              0          0          0          0          0
599              0          0          0          0          0
1941             0          0          0          0          0
1942             0          0          0          0          0
1943             0          0          0          0          0
1944             0          0          0          0          0
1945             0          0          0          0          0
1947             0          0          0          0          0
1946             0          0          0          0          0
926              0          0          0          0          0
927              0          0          0          0          0
928              0          0          0          0          0
929              0          0          0          0          0
930              0          0          0          0          0
933              0          0          0          0          0
934              0          0          0          0          0
935              0          0          0          0          0
978              0          0          0          0          0
979              0          0          0          0          0
987              0          0          0          0          0
988              0          0          0          0          0
989              0          0          0          0          0
1948             0          0          0          0          0
1952             0          0          0          0          0
1949             0          0          0          0          0
1950             0          0          0          0          0
1953             0          0          0          0          0
1954             0          0          0          0          0
1955             0          0          0          0          0
941              0          0          0          0          0
942              0          0          0          0          0
943              0          0          0          0          0
944              0          0          0          0          0
945              0          0          0          0          0
958              0          0          0          0          0
959              0          0          0          0          0
939              0          0          0          0          0
940              0          0          0          0          0
953              0          0          0          0          0
954              0          0          0          0          0
955              0          0          0          0          0
956              0          0          0          0          0
957              0          0          0          0          0
1971             0          0          0          0          0
951              0          0          0          0          0
952              0          0          0          0          0
960              0          0          0          0          0
961              0          0          0          0          0
962              0          0          0          0          0
963              0          0          0          0          0
964              0          0          0          0          0
965              0          0          0          0          0
973              0          0          0          0          0
966              0          0          0          0          0
967              0          0          0          0          0
968              0          0          0          0          0
969              0          0          0          0          0
974              0          0          0          0          0
975              0          0          0          0          0
976              0          0          0          0          0
977              0          0          0          0          0
990              0          0          0          0          0
980              0          0          0          0          0
991              0          0          0          0          0
992              0          0          0          0          0
993              0          0          0          0          0
994              0          0          0          0          0
1972             0          0          0          0          0
1973             0          0          0          0          0
1975             0          0          0          0          0
1978             0          0          0          0          0
1979             0          0          0          0          0
1980             0          0          0          0          0
1988             0          0          0          0          0
1989             0          0          0          0          0
235Node          0          0          0          0          0
245Node          0          0          0          0          0
383              0          0          0          0          0
384              0          0          0          0          0
385              0          0          0          0          0
388Node          0          0          0          0          0
247Node          0          0          0          0          0
248Node          0          0          0          0          0
249Node          0          0          0          0          0
251Node          0          0          0          0          0
252Node          0          0          0          0          0
253Node          0          0          0          0          0
254Node          0          0          0          0          0
255              0          0          0          0          0
262Node          0          0          0          0          0
263Node          0          0          0          0          0
264NMode         0          0          0          0          0
265Node          0          0          0          0          0
266Node          0          0          0          0          0
268Node          0          0          0          0          0
269Node          0          0          0          0          0
270Node          0          0          0          0          0
556              0          0          0          0          0
557              0          0          0          0          0
558              0          0          0          0          0
559              0          0          0          0          0
560              0          0          0          0          0
561              0          0          0          0          0
562              0          0          0          0          0
563              0          0          0          0          0
511              0          0          0          0          0

[CONDUITS]
;;Name           From             To               Length     Roughness  InOffset   OutOffset  InitFlow   MaxFlow
;;-------------- ---------------- ---------------- ---------- ---------- ---------- ---------- ---------- ----------
296              1939             1940             0          0          0          0          0          0
295              1959             1940             0          0          0          0          0          0
260              1960             1959             0          0          0          0          0          0
258              1961             1960             0          0          0          0          0          0
257              1962             1961             0          0          0          0          0          0
252A             1963             1962             0          0          0          0          0          0
252              1964             1963             0          0          0          0          0          0
249              568              1964             0          0          0          0          0          0
248              568              569              0          0          0          0          0          0
247              569              570              0          0          0          0          0          0
246              571              570              0          0          0          0          0          0
245              572              571              0          0          0          0          0          0
244A             573              572              0          0          0          0          0          0
243              574              573              0          0          0          0          0          0
250              1965             1964             0          0          0          0          0          0
221              1966             1965             0          0          0          0          0          0
1235             ?                ?                0          0          0          0          0          0
219              1970             1966             0          0          0          0          0          0
218              1970             1958             0          0          0          0          0          0
220              222              1966             0          0          0          0          0          0
220A             222              221Node          0          0          0          0          0          0
235              221Node          1967             0          0          0          0          0          0
234              1967             1968             0          0          0          0          0          0
233              1968             1969             0          0          0          0          0          0
232              575              1969             0          0          0          0          0          0
231              578              575              0          0          0          0          0          0
230Link          576              578              0          0          0          0          0          0
229              577              576              0          0          0          0          0          0
228              579              578              0          0          0          0          0          0
227              580              579              0          0          0          0          0          0
226              581              580              0          0          0          0          0          0
225              582              581              0          0          0          0          0          0
157              591              582              0          0          0          0          0          0
156              583              591              0          0          0          0          0          0
155              584              583              0          0          0          0          0          0
154              585              584              0          0          0          0          0          0
152              592              591              0          0          0          0          0          0
153              586              591              0          0          0          0          0          0
150              593              592              0          0          0          0          0          0
151              587              586              0          0          0          0          0          0
149              594              593              0          0          0          0          0          0
146              588              587              0          0          0          0          0          0
148              595              594              0          0          0          0          0          0
147              596              595              0          0          0          0          0          0
145              589              588              0          0          0          0          0          0
143              597              596              0          0          0          0          0          0
144              590              589              0          0          0          0          0          0
141              598              597              0          0          0          0          0          0
142              598              590              0          0          0          0          0          0
140              599              598              0          0          0          0          0          0
272              1942             1941             0          0          0          0          0          0
271              1943             1942             0          0          0          0          0          0
270              1944             1943             0          0          0          0          0          0
268              1945             1944             0          0          0          0          0          0
267              1947             1945             0          0          0          0          0          0
269              1946             1944             0          0          0          0          0          0
266              1947             1946             0          0          0          0          0          0
195              926              1947             0          0          0          0          0          0
193              927              926              0          0          0          0          0          0
192              928              927              0          0          0          0          0          0
190              929              928              0          0          0          0          0          0
188              930              929              0          0          0          0          0          0
189              933              928              0          0          0          0          0          0
186              934              933              0          0          0          0          0          0
185              935              934              0          0          0          0          0          0
6                978              935              0          0          0          0          0          0
5                979              978              0          0          0          0          0          0
4                987              979              0          0          0          0          0          0
3                988              987              0          0          0          0          0          0
2                989              988              0          0          0          0          0          0
265              1948             1947             0          0          0          0          0          0
264              1952             1948             0          0          0          0          0          0
263              1949             1952             0          0          0          0          0          0
262              1950             1949             0          0          0          0          0          0
253              1953             1952             0          0          0          0          0          0
251              1954             1953             0          0          0          0          0          0
204              1955             1954             0          0          0          0          0          0
203              941              1955             0          0          0          0          0          0
201              942              941              0          0          0          0          0          0
202              943              942              0          0          0          0          0          0
200              944              943              0          0          0          0          0          0
124              945              944              0          0          0          0          0          0
123              958              945              0          0          0          0          0          0
122              959              958              0          0          0          0          0          0
211              939              1955             0          0          0          0          0          0
210              940              939              0          0          0          0          0          0
206              953              940              0          0          0          0          0          0
205              954              953              0          0          0          0          0          0
119              955              954              0          0          0          0          0          0
118              956              955              0          0          0          0          0          0
117              957              956              0          0          0          0          0          0
217              1971             1970             0          0          0          0          0          0
216              951              1971             0          0          0          0          0          0
181              952              951              0          0          0          0          0          0
180              960              952              0          0          0          0          0          0
133E             961              960              0          0          0          0          0          0
133D             962              961              0          0          0          0          0          0
133C             963              962              0          0          0          0          0          0
133A             964              963              0          0          0          0          0          0
133              965              964              0          0          0          0          0          0
132              973              965              0          0          0          0          0          0
19               966              973              0          0          0          0          0          0
18               967              966              0          0          0          0          0          0
17               968              967              0          0          0          0          0          0
16               969              968              0          0          0          0          0          0
131              974              973              0          0          0          0          0          0
130              975              974              0          0          0          0          0          0
129              976              975              0          0          0          0          0          0
128              977              976              0          0          0          0          0          0
127              990              977              0          0          0          0          0          0
126              980              990              0          0          0          0          0          0
126Con           987              980              0          0          0          0          0          0
1b               991              990              0          0          0          0          0          0
1A               992              991              0          0          0          0          0          0
1                993              992              0          0          0          0          0          0
23               994              993              0          0          0          0          0          0
183              1972             951              0          0          0          0          0          0
182              1973             1972             0          0          0          0          0          0
166              1975             1973             0          0          0          0          0          0
163              1978             1975             0          0          0          0          0          0
162              1979             1978             0          0          0          0          0          0
113              1980             1979             0          0          0          0          0          0
111              1988             1980             0          0          0          0          0          0
110              1989             1988             0          0          0          0          0          0
102A             235Node          1978             0          0          0          0          0          0
102              245Node          235Node          0          0          0          0          0          0
91               383              245Node          0          0          0          0          0          0
90               384              383              0          0          0          0          0          0
89               385              384              0          0          0          0          0          0
86               388Node          385              0          0          0          0          0          0
93A              247Node          245Node          0          0          0          0          0          0
93               248Node          247Node          0          0          0          0          0          0
114A             249Node          248Node          0          0          0          0          0          0
68               251Node          249Node          0          0          0          0          0          0
67               252Node          251Node          0          0          0          0          0          0
66               253Node          252Node          0          0          0          0          0          0
65               254Node          253Node          0          0          0          0          0          0
64               255              254Node          0          0          0          0          0          0
62               262Node          255              0          0          0          0          0          0
59               263Node          262Node          0          0          0          0          0          0
58               264NMode         263Node          0          0          0          0          0          0
57               265Node          264NMode         0          0          0          0          0          0
56               266Node          265Node          0          0          0          0          0          0
55               268Node          266Node          0          0          0          0          0          0
52               269Node          268Node          0          0          0          0          0          0
51               270Node          269Node          0          0          0          0          0          0
294              556              1959             0          0          0          0          0          0
293              557              556              0          0          0          0          0          0
292              558              557              0          0          0          0          0          0
289              559              558              0          0          0          0          0          0
288              560              559              0          0          0          0          0          0
287              561              560              0          0          0          0          0          0
286              562              561              0          0          0          0          0          0
285              563              562              0          0          0          0          0          0

[WEIRS]
;;Name           From             To               Type       CrestHt    Qcoeff     Gated    EndCon   EndCoeff   Surcharge
;;-------------- ---------------- ---------------- ---------- ---------- ---------- -------- -------- ---------- ----------
512              ?                ?                TRANSVERSE 0          1.840      NO       0        0          YES

[XSECTIONS]
;;Link           Shape        Geom1      Geom2      Geom3      Geom4      Barrels
;;-------------- ------------ ---------- ---------- ---------- ---------- ----------
296              CIRCULAR     0          0          0          0          1
295              CIRCULAR     0          0          0          0          1
260              CIRCULAR     0          0          0          0          1
258              CIRCULAR     0          0          0          0          1
257              CIRCULAR     0          0          0          0          1
252A             CIRCULAR     0          0          0          0          1
252              CIRCULAR     0          0          0          0          1
249              CIRCULAR     0          0          0          0          1
248              CIRCULAR     0          0          0          0          1
247              CIRCULAR     0          0          0          0          1
246              CIRCULAR     0          0          0          0          1
245              CIRCULAR     0          0          0          0          1
244A             CIRCULAR     0          0          0          0          1
243              CIRCULAR     0          0          0          0          1
250              CIRCULAR     0          0          0          0          1
221              CIRCULAR     0          0          0          0          1
1235             CIRCULAR     0          0          0          0          1
219              CIRCULAR     0          0          0          0          1
218              CIRCULAR     0          0          0          0          1
220              CIRCULAR     0          0          0          0          1
220A             CIRCULAR     0          0          0          0          1
235              CIRCULAR     0          0          0          0          1
234              CIRCULAR     0          0          0          0          1
233              CIRCULAR     0          0          0          0          1
232              CIRCULAR     0          0          0          0          1
231              CIRCULAR     0          0          0          0          1
230Link          CIRCULAR     0          0          0          0          1
229              CIRCULAR     0          0          0          0          1
228              CIRCULAR     0          0          0          0          1
227              CIRCULAR     0          0          0          0          1