;; SWMM5 .inp converted from XPSWMM .xp file
;; Generated by XPSWMM Card Reader
;; Source format: XP_CARD | Original title: Montgomery County - Stillwater Basin: Existing System

[TITLE]
;;Project Title/Notes
Montgomery County - Stillwater Basin: Existing System

[OPTIONS]
FLOW_UNITS           CFS
INFILTRATION         HORTON
FLOW_ROUTING         DYNWAVE
LINK_OFFSETS         DEPTH
MIN_SLOPE            0.0
ALLOW_PONDING        NO
SKIP_STEADY_STATE    NO
ROUTING_STEP         00:00:30
VARIABLE_STEP        0.75
INERTIAL_DAMPING     PARTIAL
NORMAL_FLOW_LIMITED  BOTH
MAX_TRIALS           50
HEAD_TOLERANCE       0.0033

[JUNCTIONS]
;;Name           Elev       MaxDepth   InitDepth  SurDepth   Aponded
;;-------------- ---------- ---------- ---------- ---------- ----------
5M-12            766.00     0          0          0          0
5M-14            770.00     0          0          0          0
5M-333           780.00     0          0          0          0
5M-95A           970.10     0          0          0          0
5M-98            770.00     0          0          0          0
5M-96            770.10     0          0          0          0
OF-2             769.00     0          0          0          0
5M-255           812.00     0          0          0          0
5M-104           771.75     0          0          0          0
5M-108           771.00     0          0          0          0
5M-148           824.00     0          0          0          0
5M-147           816.00     0          0          0          0
5M-146           773.00     0          0          0          0
5M-791           773.00     0          0          0          0
5M-790           770.00     0          0          0          0
5M-95            770.00     0          0          0          0
5m-107           770.50     0          0          0          0
5m-106           768.00     0          0          0          0
5m-293           777.00     0          0          0          0
5m-254           769.00     0          0          0          0
5M57+46          769.00     0          0          0          0
5M6+54           767.50     0          0          0          0
5M1+23           770.00     0          0          0          0
5M0+00           769.25     0          0          0          0
5M23+14          770.00     0          0          0          0
5M30+05          771.50     0          0          0          0
5M27+48          768.00     0          0          0          0
DLES3+25         767.00     0          0          0          0
DLES19+32        766.00     0          0          0          0
DLES14+57        769.00     0          0          0          0
DLES37+22        769.70     0          0          0          0

[STORAGE]
;;Name           Elev       MaxDepth   InitDepth  Shape      Curve/Params
;;-------------- ---------- ---------- ---------- ---------- ----------
5M-95B           772.58     0          0          FUNCTIONAL 15.00 0          0

[CONDUITS]
;;Name           From             To               Length     Roughness  InOffset   OutOffset  InitFlow   MaxFlow
;;-------------- ---------------- ---------------- ---------- ---------- ---------- ---------- ---------- ----------
52               5M-14            5M-12            679.00     0.0150     754.64     753.95     0          0
DogLeg           5M-95A           5M-14            3970.00    0.0140     751.77     754.64     0          0
61               5M-98            5M-96            770.00     0.0200     752.54     751.78     0          0
68               5M-104           5M-98            1493.00    0.0200     753.71     752.54     0          0
106              5M-148           5M-147           264.00     0.0140     815.03     809.63     0          0
108              5M-147           5M-146           232.00     0.0140     809.63     767.18     0          0
109              5M-146           5M-108           160.00     0.0140     767.07     766.28     0          0
180              5M-333           5M-791           392.00     0.0140     773.60     763.58     0          0
182              5M-791           5M-790           110.50     0.0140     763.58     760.63     0          0
183              5M-790           5M-96            345.30     0.0140     755.77     753.28     0          0
184              5M-96            OF-2             100.00     0.0140     764.00     763.90     0          0
186              5M-96            5M-95            135.00     0.0200     751.78     751.04     0          0
187              5M-95            5M-95B           15.00      0.0200     751.04     751.00     0          0
190              5M-108           5m-107           373.00     0.0200     755.37     754.40     0          0
192              5m-107           5m-106           172.00     0.0200     754.40     754.28     0          0
193              5m-106           5M-104           524.00     0.0200     754.28     753.71     0          0
196              5M-255           5m-293           179.00     0.0140     796.56     773.29     0          0
198              5m-293           5m-254           127.00     0.0140     773.29     763.00     0          0
199              5m-254           5M-104           214.00     0.0140     758.70     755.56     0          0
243              5M6+54           5M1+23           525.00     0.0140     751.11     750.90     0          0
245              5M1+23           5M0+00           125.00     0.0140     750.90     750.85     0          0
247              5M23+14          5M6+54           1650.00    0.0140     751.77     751.11     0          0
248              5M-104           5M23+14          33.00      0.0140     756.00     754.60     0          0
255              5M30+05          5M27+48          250.00     0.0140     752.68     752.53     0          0
256              5M27+48          5M23+14          433.33     0.0140     752.03     751.77     0          0
SIPHN1           SIPHON2          5M57+46          325.00     0.0140     748.59     748.47     0          0
301              DLES19+32        DLES14+57        450.00     0.0140     749.61     749.43     0          0
302              DLES14+57        DLES3+25         1600.00    0.0140     749.23     748.59     0          0
304              DLES37+22        DLES19+32        1750.00    0.0140     750.51     749.81     0          0

[PUMPS]
;;Name           From             To               PumpCurve  Status   Startup    Shutoff
;;-------------- ---------------- ---------------- ---------- -------- ---------- ----------
DogLeg           5M-95B           5M-95A           PC_DogLeg  ON       751.58     750.58    

[CURVES]
;;Name           Type       X-Value    Y-Value
;;-------------- ---------- ---------- ----------
PC_DogLeg        Pump3      0          0
;

[XSECTIONS]
;;Link           Shape        Geom1      Geom2      Geom3      Geom4      Barrels
;;-------------- ------------ ---------- ---------- ---------- ---------- ----------
52               CIRCULAR     2.75       0          0          0          1
DogLeg           CIRCULAR     0.83       0          0          0          1
61               CIRCULAR     2.25       0          0          0          1
68               CIRCULAR     2.25       0          0          0          1
106              CIRCULAR     1.00       0          0          0          1
108              CIRCULAR     0.66       0          0          0          1
109              CIRCULAR     1.00       0          0          0          1
180              CIRCULAR     1.00       0          0          0          1
182              CIRCULAR     1.00       0          0          0          1
183              CIRCULAR     0.83       0          0          0          1
184              CIRCULAR     0.83       0          0          0          1
186              CIRCULAR     2.25       0          0          0          1
187              CIRCULAR     1.25       0          0          0          1
190              CIRCULAR     2.25       0          0          0          1
192              CIRCULAR     2.25       0          0          0          1
193              CIRCULAR     2.25       0          0          0          1
196              CIRCULAR     0.66       0          0          0          1
198              CIRCULAR     0.66       0          0          0          1
199              CIRCULAR     0.66       0          0          0          1
243              CIRCULAR     3.50       0          0          0          1
245              CIRCULAR     3.50       0          0          0          1
247              CIRCULAR     3.50       0          0          0          1
248              CIRCULAR     0.66       0          0          0          1
255              CIRCULAR     2.50       0          0          0          1
256              CIRCULAR     3.00       0          0          0          1
SIPHN1           CIRCULAR     3.50       0          0          0          1
301              CIRCULAR     4.00       0          0          0          1
302              CIRCULAR     4.00       0          0          0          1
304              CIRCULAR     4.00       0          0          0          1

[LOSSES]
;;Link           Inlet      Outlet     Average    Flap Gate
;;-------------- ---------- ---------- ---------- ----------
52               0          0          0          NO
DogLeg           0          0          0          NO
61               0          0          0          NO
68               0          0          0          NO
106              0          0          0          NO
108              0          0          0          NO
109              0          0          0          NO
180              0          0          0          NO
182              0          0          0          NO
183              0          0          0          NO
184              0          0          0          NO
186              0          0          0          NO
187              0          0          0          NO
190              0          0          0          NO
192              0          0          0          NO
193              0          0          0          NO
196              0          0          0          NO
198              0          0          0          NO
199              0          0          0          NO
243              0          0          0          NO
245              0          0          0          NO
247              0          0          0          NO
248              0          0          0          NO
255              0          0          0          NO
256              0          0          0          NO
SIPHN1           0          0          0          NO
301              0          0          0          NO
302              0          0          0          NO
304              0          0          0          NO

[INFLOWS]
;;Node           Constituent  Time Series      Type     Mfactor  Sfactor  Baseline Pattern
;;-------------- ------------ ---------------- -------- -------- -------- -------- --------
5M-14            FLOW         ""               FLOW     1.0      1.0      0.25

[COORDINATES]
;;Node           X-Coord            Y-Coord
;;-------------- ------------------ ------------------
5M-12            -160.70            -62.48            
5M-14            -174.97            -66.66            
5M-333           -165.93            -154.59           
5M-95B           -204.53            -99.27            
5M-95A           -192.53            -79.14            
5M-98            -233.06            -146.31           
5M-96            -222.92            -132.60           
OF-2             -242.41            -74.95            
5M-255           -202.36            -187.70           
5M-104           -240.36            -155.45           
5M-108           -268.86            -179.97           
5M-148           -202.77            -238.36           
5M-147           -220.43            -215.85           
5M-146           -242.75            -194.84           
5M-791           -187.98            -150.36           
5M-790           -203.47            -139.66           
5M-95            -213.79            -113.45           
5m-107           -255.23            -176.71           
5m-106           -253.31            -166.20           
5m-293           -211.99            -177.30           
5m-254           -222.73            -168.39           
5M57+46          -194.94            -48.39            
5M6+54           -240.25            -133.11           
5M1+23           -225.26            -118.18           
5M0+00           -210.00            -93.23            
5M23+14          -244.65            -146.08           
5M30+05          -250.23            -175.28           
5M27+48          -250.23            -157.64           
DLES3+25         -213.06            -47.95            
DLES19+32        -218.98            -70.30            
DLES14+57        -210.10            -67.35            
DLES37+22        -219.58            -88.22            

[MAP]
DIMENSIONS -268.86 -238.36 -160.70 -47.95
Units      None

[REPORT]
INPUT            YES
SUBCATCHMENTS    ALL
NODES            ALL
LINKS            ALL



