;; SWMM5 .inp converted from XPSWMM .xp file
;; Generated by XPSWMM Card Reader
;; Source format: XP_CARD | Original title: (none)

[TITLE]
;;Project Title/Notes
Converted from XPSWMM .xp file

[OPTIONS]
FLOW_UNITS           CFS
INFILTRATION         HORTON
FLOW_ROUTING         DYNWAVE
LINK_OFFSETS         DEPTH
MIN_SLOPE            0.0
ALLOW_PONDING        NO
SKIP_STEADY_STATE    NO
ROUTING_STEP         00:00:08
VARIABLE_STEP        0.75
INERTIAL_DAMPING     NONE
NORMAL_FLOW_LIMITED  BOTH
MAX_TRIALS           50
HEAD_TOLERANCE       0.0033

[JUNCTIONS]
;;Name           Elev       MaxDepth   InitDepth  SurDepth   Aponded
;;-------------- ---------- ---------- ---------- ---------- ----------
3506             592.80     0          0          0          0
7056             596.20     0          0          0          0
7083             600.70     0          0          0          0
7129             601.90     0          0          0          0
7142             602.30     0          0          0          0
6374             599.10     0          0          0          0
7101             600.00     0          0          0          0
7104             604.00     0          0          0          0
7111             603.70     0          0          0          0
7133             602.10     0          0          0          0
7132             601.80     0          0          0          0
6401             593.50     0          0          0          0
6460             595.30     0          0          0          0
6471             591.90     0          0          0          0
6473             595.20     0          0          0          0
6455             592.20     0          0          0          0
3511             592.10     0          0          0          0
3510             592.30     0          0          0          0
6359             592.60     0          0          0          0
6403             593.20     0          0          0          0
6408             593.40     0          0          0          0
6456             596.90     0          0          0          0
6458             591.60     0          0          0          0
FED              590.00     0          0          0          0
3518             591.10     0          0          0          0
E.GEN            590.00     0          0          0          0
3482             597.20     0          0          0          0
3459             590.70     0          0          0          0
4362             622.90     0          0          0          0
7008             605.40     0          0          0          0
7016             596.80     0          0          0          0
4368             591.40     0          0          0          0
3451             591.40     0          0          0          0
4366             594.50     0          0          0          0
3413             591.70     0          0          0          0
3414             590.80     0          0          0          0
3540             592.50     0          0          0          0
3456             598.00     0          0          0          0
3457             592.30     0          0          0          0
3469             590.30     0          0          0          0
4151             595.70     0          0          0          0
14136            592.00     0          0          0          0
4163             596.10     0          0          0          0
4580             594.20     0          0          0          0
4191             596.30     0          0          0          0
4565             596.30     0          0          0          0
4560             595.00     0          0          0          0
4545             595.20     0          0          0          0
4544             597.20     0          0          0          0
4523             597.50     0          0          0          0
7325             596.90     0          0          0          0
7359             598.60     0          0          0          0
7360             597.40     0          0          0          0
7384             599.20     0          0          0          0
7267             603.40     0          0          0          0
7264             603.80     0          0          0          0
7700             604.30     0          0          0          0
96107            589.70     0          0          0          0
14119            589.70     0          0          0          0
4155             589.30     0          0          0          0
4102             589.80     0          0          0          0
4282             591.60     0          0          0          0
FIRST            599.20     0          0          0          0
GM               591.20     0          0          0          0
4125             584.90     0          0          0          0
INTCEP           591.00     0          0          0          0
4119             589.90     0          0          0          0
4111             589.90     0          0          0          0
4069             589.00     0          0          0          0
4067             589.40     0          0          0          0
4057             589.80     0          0          0          0
4031             590.10     0          0          0          0
4017             591.30     0          0          0          0
4278             591.20     0          0          0          0
DITCH2           594.00     0          0          0          0
14TH             591.00     0          0          0          0
DITCH1           588.40     0          0          0          0
14TH             597.00     0          0          0          0
16TH             592.70     0          0          0          0
3400             592.80     0          0          0          0
16TH             593.00     0          0          0          0
7560             606.30     0          0          0          0
7455             607.00     0          0          0          0
7528             606.80     0          0          0          0
7523             606.30     0          0          0          0
7496             607.20     0          0          0          0
90080            606.60     0          0          0          0
6423             596.50     0          0          0          0
6428             600.20     0          0          0          0
6436             603.10     0          0          0          0
6477             595.20     0          0          0          0
6484             602.20     0          0          0          0
6493             603.80     0          0          0          0
7465             605.80     0          0          0          0
7468             604.90     0          0          0          0
7473             605.40     0          0          0          0
7526             605.40     0          0          0          0
7541             605.50     0          0          0          0
7620             606.10     0          0          0          0
7604             607.30     0          0          0          0
6448             593.30     0          0          0          0
6451             592.10     0          0          0          0
6447             603.90     0          0          0          0
6443             602.80     0          0          0          0
90185            606.30     0          0          0          0
90190            606.50     0          0          0          0
7223             601.00     0          0          0          0
7215             600.80     0          0          0          0
7274             599.80     0          0          0          0
7281             597.20     0          0          0          0
7237             600.40     0          0          0          0
7248             599.40     0          0          0          0
7575             604.40     0          0          0          0
7579             604.40     0          0          0          0
6379             605.20     0          0          0          0
7103             602.90     0          0          0          0
3501             590.30     0          0          0          0
7053             596.10     0          0          0          0
7076             598.30     0          0          0          0
7163             598.80     0          0          0          0
7144             600.90     0          0          0          0
7146             600.30     0          0          0          0
7228             600.00     0          0          0          0
3485             591.00     0          0          0          0
7052             596.20     0          0          0          0
7017             597.20     0          0          0          0
7181             598.30     0          0          0          0
7184             597.20     0          0          0          0
4377             594.80     0          0          0          0
4382             597.20     0          0          0          0
4465             596.90     0          0          0          0
4466             598.30     0          0          0          0
4482             596.80     0          0          0          0
4489             596.80     0          0          0          0
4339             591.70     0          0          0          0
4298             593.10     0          0          0          0
4455             595.90     0          0          0          0
4474             598.00     0          0          0          0
4478             597.50     0          0          0          0
4326             593.20     0          0          0          0
4320             594.70     0          0          0          0
3412             590.40     0          0          0          0
7674             604.70     0          0          0          0
7659             604.60     0          0          0          0
7641             605.60     0          0          0          0
90205            606.30     0          0          0          0
90230            608.20     0          0          0          0
90246            610.40     0          0          0          0
90247            609.90     0          0          0          0
90248            611.50     0          0          0          0
90253            612.20     0          0          0          0
90465            611.30     0          0          0          0
90466            611.60     0          0          0          0
90458            612.20     0          0          0          0
90468            611.90     0          0          0          0
7394             600.50     0          0          0          0
7387             601.20     0          0          0          0
7405             600.60     0          0          0          0
7410             602.00     0          0          0          0
7357             598.40     0          0          0          0
7292             598.90     0          0          0          0
4532             596.90     0          0          0          0
4604             597.50     0          0          0          0
4555             593.80     0          0          0          0
4222             589.50     0          0          0          0
44226            589.20     0          0          0          0
34153            590.90     0          0          0          0
4210             590.90     0          0          0          0
4266             590.60     0          0          0          0
4265             590.30     0          0          0          0
4223             589.10     0          0          0          0
4221             590.20     0          0          0          0
24153            591.80     0          0          0          0
4211             590.60     0          0          0          0
4126             586.30     0          0          0          0
24224            590.40     0          0          0          0
4213             590.40     0          0          0          0
24226            588.10     0          0          0          0
14224            590.00     0          0          0          0
4230             589.00     0          0          0          0
4096             592.70     0          0          0          0
4094             592.10     0          0          0          0
4436             591.00     0          0          0          0
4079             589.80     0          0          0          0
4039             590.70     0          0          0          0
4038             591.30     0          0          0          0
4023             591.20     0          0          0          0
4429             588.50     0          0          0          0
4045             592.60     0          0          0          0
4422             591.50     0          0          0          0
4286             591.90     0          0          0          0
4021             590.40     0          0          0          0
4009             590.70     0          0          0          0
4020             591.60     0          0          0          0
4035             591.10     0          0          0          0
4284             591.10     0          0          0          0
EMEe             595.00     0          0          0          0
EMEg             605.00     0          0          0          0
EMEd             596.70     0          0          0          0
EMEa             599.20     0          0          0          0
EMEb             597.80     0          0          0          0
EMEc             597.20     0          0          0          0
EMEf             605.00     0          0          0          0
EME              592.20     0          0          0          0
9039             590.00     0          0          0          0
6566             591.10     0          0          0          0
6571             594.20     0          0          0          0
HOLL             595.00     0          0          0          0
6551             591.10     0          0          0          0
6609             590.80     0          0          0          0
6600             590.80     0          0          0          0
6548             592.20     0          0          0          0
6549             598.60     0          0          0          0
6629             603.40     0          0          0          0
9045             604.00     0          0          0          0
9124             588.70     0          0          0          0
9119             592.00     0          0          0          0
9138             589.30     0          0          0          0
9361             593.40     0          0          0          0
9352             594.20     0          0          0          0
9366             595.00     0          0          0          0
9368             595.10     0          0          0          0
59487            595.40     0          0          0          0
9486             594.10     0          0          0          0
9471             601.80     0          0          0          0
9150             592.70     0          0          0          0
9369             594.80     0          0          0          0
9377             593.30     0          0          0          0
9167             587.20     0          0          0          0
19487            591.90     0          0          0          0
9511             587.40     0          0          0          0
9079             592.90     0          0          0          0
9088             589.40     0          0          0          0
WEB              589.40     0          0          0          0
WEB              605.00     0          0          0          0
9497             592.70     0          0          0          0
9509             601.50     0          0          0          0
9201             604.30     0          0          0          0
9550             606.80     0          0          0          0
9216             609.80     0          0          0          0
9554             606.20     0          0          0          0
9468             602.10     0          0          0          0
9584             601.90     0          0          0          0
92167            604.00     0          0          0          0
92180            604.10     0          0          0          0
92195            605.40     0          0          0          0
9407             592.50     0          0          0          0
92010            594.20     0          0          0          0
92016            591.20     0          0          0          0
9415             593.50     0          0          0          0
9445             594.00     0          0          0          0
9528             603.40     0          0          0          0
9600             603.60     0          0          0          0
9630             604.30     0          0          0          0
9647             607.80     0          0          0          0
90359            609.90     0          0          0          0
9544             600.20     0          0          0          0
9608             607.20     0          0          0          0
9657             608.40     0          0          0          0
90316            609.90     0          0          0          0
90318            609.90     0          0          0          0
9624             606.80     0          0          0          0
9653             607.50     0          0          0          0
90355            609.00     0          0          0          0
90074            608.00     0          0          0          0
6589             604.50     0          0          0          0
90002            609.00     0          0          0          0
6636             600.50     0          0          0          0
6638             606.60     0          0          0          0
6644             609.60     0          0          0          0
90088            607.80     0          0          0          0
90092            607.70     0          0          0          0
90095            607.70     0          0          0          0
90097            607.30     0          0          0          0
90118            608.20     0          0          0          0
90430            610.40     0          0          0          0
90429            612.50     0          0          0          0
90412            610.50     0          0          0          0
90054            608.60     0          0          0          0
9175             593.20     0          0          0          0
9177             598.30     0          0          0          0
9240             600.50     0          0          0          0
9245             603.50     0          0          0          0
9328             608.70     0          0          0          0
9315             609.60     0          0          0          0
90031            610.50     0          0          0          0
90057            610.10     0          0          0          0
90053            609.70     0          0          0          0
90417a           610.30     0          0          0          0
90417            611.00     0          0          0          0
90414            611.40     0          0          0          0
90409            610.90     0          0          0          0
9422             593.11     0          0          0          0
90043            610.25     0          0          0          0
3174             595.30     0          0          0          0
3160             591.90     0          0          0          0
3158             593.10     0          0          0          0
3147             594.10     0          0          0          0
3144             592.10     0          0          0          0
3139             599.80     0          0          0          0
3015             600.10     0          0          0          0
3013             601.50     0          0          0          0
3003             602.50     0          0          0          0
2267             603.90     0          0          0          0
2263             601.40     0          0          0          0
2251             593.20     0          0          0          0
2217             604.30     0          0          0          0
2210             606.50     0          0          0          0
2137             608.10     0          0          0          0
3398             594.70     0          0          0          0
3566             587.70     0          0          0          0
3175             592.40     0          0          0          0
3181             592.80     0          0          0          0
3559             602.50     0          0          0          0
3558             592.00     0          0          0          0
WEISS            591.50     0          0          0          0
2072             610.50     0          0          0          0
2070             611.70     0          0          0          0
2130             610.60     0          0          0          0
2075             609.80     0          0          0          0
2065             612.70     0          0          0          0
2015             613.90     0          0          0          0
2373             615.30     0          0          0          0
2374             614.20     0          0          0          0
STA266           627.00     0          0          0          0
STA297           621.00     0          0          0          0
STA305           618.00     0          0          0          0
HEM298           622.00     0          0          0          0
HEM299           621.00     0          0          0          0
HEM204           621.00     0          0          0          0
JAM217           621.00     0          0          0          0
JAM202           621.00     0          0          0          0
HEM150           621.00     0          0          0          0
2862             619.00     0          0          0          0
2864             618.00     0          0          0          0
2011             614.20     0          0          0          0
HEM363           623.00     0          0          0          0
PAS317           616.50     0          0          0          0
STA309           615.00     0          0          0          0
2344             616.00     0          0          0          0
PAS893           616.00     0          0          0          0
PAS1002          616.00     0          0          0          0
WEI411           626.00     0          0          0          0
WEI434           625.50     0          0          0          0
WEI453           622.00     0          0          0          0
WEI458           621.00     0          0          0          0
WEI476           618.00     0          0          0          0
WEI493           614.50     0          0          0          0
WEI391           626.50     0          0          0          0
WEI502           625.00     0          0          0          0
WEI504           621.50     0          0          0          0
HEM371           621.50     0          0          0          0
WEI505           622.00     0          0          0          0
WEI506           619.00     0          0          0          0
WEI507           619.00     0          0          0          0
WEI508           616.50     0          0          0          0
STA307           616.50     0          0          0          0
2005             615.00     0          0          0          0
2279             601.80     0          0          0          0
2294             603.70     0          0          0          0
2537             603.70     0          0          0          0
2165             607.30     0          0          0          0
2198             606.30     0          0          0          0
2459             606.30     0          0          0          0
2088             609.80     0          0          0          0
2110             611.40     0          0          0          0
2122             607.20     0          0          0          0
2412             609.80     0          0          0          0
2541             603.90     0          0          0          0
2529             607.50     0          0          0          0
2467             608.30     0          0          0          0
2457             608.80     0          0          0          0
2406             609.60     0          0          0          0
2408             608.80     0          0          0          0
2410             609.40     0          0          0          0
2331             613.60     0          0          0          0
FITb             595.20     0          0          0          0
FITa             595.40     0          0          0          0
FITd             589.00     0          0          0          0
FITe             594.00     0          0          0          0
FITZ             595.00     0          0          0          0
3239             603.10     0          0          0          0
3238             601.40     0          0          0          0
2550             602.40     0          0          0          0
2544             602.80     0          0          0          0
3034             601.20     0          0          0          0
3052             600.80     0          0          0          0
3068             602.70     0          0          0          0
3240             604.70     0          0          0          0
3334             592.10     0          0          0          0
3328             594.70     0          0          0          0
3322             602.30     0          0          0          0
3317             602.70     0          0          0          0
3245             603.20     0          0          0          0
13550            593.10     0          0          0          0
3384             595.20     0          0          0          0
W.               591.90     0          0          0          0
3345             598.90     0          0          0          0
3545             591.50     0          0          0          0
CRONK            592.00     0          0          0          0
3547             590.00     0          0          0          0
3387             587.30     0          0          0          0
3385             594.90     0          0          0          0
3232             593.90     0          0          0          0
3095             594.30     0          0          0          0
33328            594.10     0          0          0          0
3220             593.30     0          0          0          0
3230             587.20     0          0          0          0
3335             591.60     0          0          0          0
3556             590.00     0          0          0          0
3555             589.20     0          0          0          0
3554             589.50     0          0          0          0
3552             589.00     0          0          0          0
3550             593.00     0          0          0          0
3309             600.70     0          0          0          0
3302             603.20     0          0          0          0
3251             604.20     0          0          0          0
3265             604.50     0          0          0          0
3263             603.70     0          0          0          0
2556             603.10     0          0          0          0
2594             604.50     0          0          0          0
2582             605.70     0          0          0          0
2524             607.00     0          0          0          0
2516             608.70     0          0          0          0
2506             609.30     0          0          0          0
2495             609.60     0          0          0          0
2558             609.90     0          0          0          0
2337             614.40     0          0          0          0
2436             610.70     0          0          0          0
5085             610.40     0          0          0          0
5074             611.10     0          0          0          0
5071             613.50     0          0          0          0
5057             614.30     0          0          0          0
5012             613.40     0          0          0          0
5008             614.10     0          0          0          0
5143             608.40     0          0          0          0
5105             608.30     0          0          0          0
2394             609.50     0          0          0          0
2391             610.70     0          0          0          0
2372             614.40     0          0          0          0
5108             609.20     0          0          0          0
5077             613.30     0          0          0          0
2389             614.70     0          0          0          0
2355             615.00     0          0          0          0
2340             614.50     0          0          0          0
5157             608.60     0          0          0          0
5151             610.40     0          0          0          0
2441             611.00     0          0          0          0
5072             627.30     0          0          0          0
5056             627.60     0          0          0          0
CON              627.80     0          0          0          0
16100            599.80     0          0          0          0
6094             594.90     0          0          0          0
MILLER           590.00     0          0          0          0
W.REM            588.50     0          0          0          0
26100            598.70     0          0          0          0
6099             598.50     0          0          0          0
6100             599.50     0          0          0          0
3339             591.90     0          0          0          0
3356             590.00     0          0          0          0
13356            595.10     0          0          0          0
6328             598.90     0          0          0          0
6133             600.60     0          0          0          0
6120             601.50     0          0          0          0
6127             599.80     0          0          0          0