;; SWMM5 .inp converted from XPSWMM .xp file
;; Generated by XPSWMM Card Reader
;; Source format: XP_CARD | Original title: passaic valley sanitation commision

[TITLE]
;;Project Title/Notes
passaic valley sanitation commision

[OPTIONS]
FLOW_UNITS           CFS
INFILTRATION         HORTON
FLOW_ROUTING         DYNWAVE
LINK_OFFSETS         DEPTH
MIN_SLOPE            0.0
ALLOW_PONDING        NO
SKIP_STEADY_STATE    NO
ROUTING_STEP         00:00:05
VARIABLE_STEP        0.75
INERTIAL_DAMPING     PARTIAL
NORMAL_FLOW_LIMITED  BOTH
MAX_TRIALS           50
HEAD_TOLERANCE       0.0033

[JUNCTIONS]
;;Name           Elev       MaxDepth   InitDepth  SurDepth   Aponded
;;-------------- ---------- ---------- ---------- ---------- ----------
n221             145.00     0          0          0          0
academy          110.00     0          3.12       0          0
union            113.00     0          3.83       0          0
verdel           115.00     0          3.93       0          0
delevan          108.00     0          3.45       0          0
herbert          110.00     0          3.78       0          0
her34            110.00     0          3.87       0          0
3&4              113.00     0          4.00       0          0
saybk            117.00     0          3.88       0          0
jabez            112.00     0          3.88       0          0
ave              107.00     0          3.79       0          0
wilson           105.00     0          1.98       0          0
fbay             103.00     0          1.98       0          0
city             120.00     0          0          0          0
bridge           120.00     0          0          0          0
clay             111.00     0          0          0          0
so               108.00     0          0          0          0
backus           110.00     0          0          0          0
n461             199.00     0          0          0          0
n462             204.00     0          0          0          0
n463             147.00     0          0          0          0
reg46            113.00     0          0          0          0
n481             218.00     0          0          0          0
n482             164.00     0          0          0          0
reg48            120.00     0          0          0          0
n501             162.00     0          0          0          0
reg50            112.00     0          0          0          0
reg49            112.00     0          0          0          0
npa1             118.00     0          0          0          0
regpa            112.00     0          0          0          0
n511             216.00     0          0          0          0
n513             199.00     0          0          0          0
n515             193.00     0          0          0          0
n518             193.00     0          0          0          0
n5110            122.00     0          0          0          0
reg51            121.00     0          0          0          0
n512             213.00     0          0          0          0
n514             216.00     0          0          0          0
n516             243.00     0          0          0          0
n517             243.00     0          0          0          0
n519             172.00     0          0          0          0
reg52            113.00     0          0          0          0
reg53            118.00     0          0          0          0
n541             133.00     0          0          0          0
reg54            116.00     0          0          0          0
n551             196.00     0          0          0          0
n552             131.00     0          0          0          0
reg55            117.00     0          0          0          0
n561             125.00     0          0          0          0
n562             115.00     0          0          0          0
n564             112.00     0          0          0          0
reg56            112.00     0          0          0          0
n563             134.00     0          0          0          0
regadm           110.00     0          0          0          0
regwhl           110.00     0          0          0          0
ss8              113.00     0          0          0          0
ss7              113.00     0          0          0          0
ss6              108.00     0          0          0          0
ss5              109.00     0          0          0          0
ss4              107.00     0          0          0          0
ss3              107.00     0          0          0          0
ss2              107.00     0          0          0          0
ss1              105.00     0          0          0          0
reg60            110.00     0          0          0          0
n601             110.00     0          0          0          0
n611             111.00     0          0          0          0
reg61            109.00     0          0          0          0
reg62            113.00     0          0          0          0
plant            103.00     0          0          0          0
van              110.00     0          0          0          0
606              110.00     0          0          0          0
608              110.00     0          0          0          0
610              110.00     0          0          0          0
cso62            113.00     0          0          0          0
cso60            110.00     0          0          0          0
cso61            109.00     0          0          0          0
cso46            113.00     0          0          0          0
cso48            120.00     0          0          0          0
cso49            112.00     0          0          0          0
cso50            112.00     0          0          0          0
cso51            121.00     0          0          0          0
csopa            112.00     0          0          0          0
cso53            118.00     0          0          0          0
cso52            113.00     0          0          0          0
cso54            116.00     0          0          0          0
cso55            117.00     0          0          0          0
cso56            112.00     0          0          0          0
reg83            108.00     0          0          0          0
cso83            108.00     0          0          0          0
ar56             0          0          0          0          0

[CONDUITS]
;;Name           From             To               Length     Roughness  InOffset   OutOffset  InitFlow   MaxFlow
;;-------------- ---------------- ---------------- ---------- ---------- ---------- ---------- ---------- ----------
16               union            verdel           1953.00    0.0123     86.55      85.99      0          0
17               verdel           delevan          2035.00    0.0130     85.96      85.41      0          0
18               delevan          herbert          1745.00    0.0118     85.41      84.71      0          0
19               herbert          her34            1556.00    0.0120     84.59      84.14      0          0
20               her34            3&4              1700.00    0.0094     84.14      83.79      0          0
21               3&4              clay             3219.00    0.0130     83.79      82.81      0          0
22               saybk            city             2153.00    0.0130     81.37      80.74      0          0
24               ave              wilson           2142.00    0.0139     77.57      76.92      0          0
23               jabez            ave              1416.00    0.0130     78.00      77.57      0          0
25               wilson           fbay             2141.00    0.0139     76.92      76.26      0          0
74               clay             bridge           1754.00    0.0140     82.81      82.28      0          0
75               bridge           saybk            1754.00    0.0140     82.28      81.75      0          0
78               so               backus           1657.00    0.0140     91.08      86.11      0          0
79               backus           jabez            1683.00    0.0140     86.11      78.00      0          0
p462             n462             n463             2600.00    0.0140     193.26     128.80     0          0
p463             n463             reg46            1200.00    0.0140     128.80     101.63     0          0
p461             n461             n463             4200.00    0.0140     184.47     128.80     0          0
p481             n481             n482             2600.00    0.0140     207.10     151.25     0          0
p482             n482             reg48            2500.00    0.0140     151.25     104.72     0          0
p501             n501             reg50            2700.00    0.0140     146.89     101.66     0          0
ppa1             npa1             regpa            600.00     0.0140     108.34     102.40     0          0
p511             n511             n513             3000.00    0.0140     197.47     186.50     0          0
p513             n513             n515             2200.00    0.0140     186.50     182.60     0          0
p515             n515             n518             2400.00    0.0140     182.60     178.15     0          0
p518             n518             n5110            3800.00    0.0140     178.15     107.10     0          0
p5110            n5110            reg51            700.00     0.0140     107.10     102.11     0          0
p512             n512             n513             3000.00    0.0140     201.40     186.50     0          0
p514             n514             n515             4400.00    0.0140     207.11     182.60     0          0
p516             n516             n518             4200.00    0.0140     231.55     178.15     0          0
p517             n517             n518             4100.00    0.0140     222.53     178.15     0          0
p519             n519             n5110            2500.00    0.0140     158.64     107.10     0          0
p541             n541             reg54            2600.00    0.0140     121.51     103.34     0          0
p551             n551             n552             3200.00    0.0140     184.91     115.56     0          0
p552             n552             reg55            3000.00    0.0140     115.56     102.30     0          0
p561             n561             n562             3600.00    0.0140     116.00     102.64     0          0
p562             n562             n564             2800.00    0.0140     102.64     98.59      0          0
p564             n564             reg56            1000.00    0.0140     98.59      95.89      0          0
p563             n563             n564             2600.00    0.0140     116.89     98.59      0          0
cadm             regadm           reg83            100.00     0.0140     96.08      91.08      0          0
cwhl             regwhl           reg83            100.00     0.0140     96.08      91.08      0          0
177              ss8              ss7              2263.00    0.0140     93.54      92.41      0          0
179              ss7              ss6              2975.00    0.0140     92.41      90.92      0          0
181              ss6              ss5              1831.00    0.0140     89.92      89.00      0          0
183              ss5              ss4              2094.00    0.0140     87.50      86.70      0          0
185              ss4              ss3              3100.00    0.0140     86.70      85.52      0          0
187              ss3              ss2              3000.00    0.0140     85.52      84.38      0          0
189              ss2              ss1              3000.00    0.0140     84.38      83.24      0          0
190              ss1              fbay             3000.00    0.0140     83.24      82.10      0          0
c60              reg60            ss5              640.00     0.0140     92.50      92.08      0          0
p601             n601             reg60            1000.00    0.0140     99.39      97.20      0          0
p611             n611             reg61            1600.00    0.0140     100.10     99.30      0          0
Link_615         ?                ?                2141.00    0.0139     76.26      75.62      0          0
565              city             van              3474.00    0.0140     80.74      79.68      0          0
566              van              jabez            3240.00    0.0140     79.68      78.57      0          0
607              academy          606              3058.00    0.0130     88.37      87.65      0          0
609a             609b             608              110.00     0.0140     87.65      76.70      0          0
611a             611b             610              180.00     0.0140     76.70      76.70      0          0
c56c             ar56             city             500.00     0.0140     90.22      80.96      0          0

[ORIFICES]
;;Name           From             To               Type       Offset     Qcoeff     Gated    CloseTime
;;-------------- ---------------- ---------------- ---------- ---------- ---------- -------- ----------
516.1            reg46            verdel           SIDE       101.63     0.650      NO       0
527.1            reg48            herbert          SIDE       104.72     0.650      NO       0
530.1            reg50            3&4              SIDE       101.66     0.650      NO       0
532.1            reg49            3&4              SIDE       102.62     0.650      NO       0
537.1            regpa            clay             SIDE       102.34     0.650      NO       0
549.1            reg51            clay             SIDE       102.11     0.650      NO       0
561.1            reg52            bridge           SIDE       106.26     0.650      NO       0
563.1            reg53            bridge           SIDE       108.54     0.650      NO       0
567.1            reg54            saybk            SIDE       103.34     0.650      NO       0
573.1            reg55            saybk            SIDE       102.30     0.650      NO       0
611.1            reg61            ss6              SIDE       99.30      0.650      NO       0
613.1            reg62            ss8              SIDE       94.34      0.650      NO       0
612a             612b             612c             SIDE       76.70      0.650      NO       0
o62              reg62            cso62            SIDE       0          0.650      NO       0
c83              reg83            so               SIDE       0          0.650      NO       0
c56a             reg56            ar56             SIDE       0          0.650      NO       0

[WEIRS]
;;Name           From             To               Type       CrestHt    Qcoeff     Gated    EndCon   EndCoeff   Surcharge
;;-------------- ---------------- ---------------- ---------- ---------- ---------- -------- -------- ---------- ----------
o60              reg60            cso60            TRANSVERSE 98.60      1.840      NO       0        0          YES
o61              reg61            cso61            TRANSVERSE 100.00     1.840      NO       0        0          YES
o46              reg46            cso46            TRANSVERSE 101.33     1.840      NO       0        0          YES
o48              reg48            cso48            TRANSVERSE 104.95     1.840      NO       0        0          YES
o49              reg49            cso49            TRANSVERSE 102.50     1.840      NO       0        0          YES
o50              reg50            cso50            TRANSVERSE 103.50     1.840      NO       0        0          YES
o51              reg51            cso51            TRANSVERSE 105.12     1.840      NO       0        0          YES
opa              regpa            csopa            TRANSVERSE 103.24     1.840      NO       0        0          YES
o53              reg53            cso53            TRANSVERSE 108.40     1.840      NO       0        0          YES
o52              reg52            cso52            TRANSVERSE 106.30     1.840      NO       0        0          YES
o54              reg54            cso54            TRANSVERSE 104.53     1.840      NO       0        0          YES
o55              reg55            cso55            TRANSVERSE 103.10     1.840      NO       0        0          YES
c562             reg56            cso56            TRANSVERSE 97.67      1.840      NO       0        0          YES
083              reg83            cso83            TRANSVERSE 98.10      1.840      NO       0        0          YES

[XSECTIONS]
;;Link           Shape        Geom1      Geom2      Geom3      Geom4      Barrels
;;-------------- ------------ ---------- ---------- ---------- ---------- ----------
16               CUSTOM       10.50      0          0          0          1
17               CIRCULAR     10.83      0          0          0          1
18               CUSTOM       10.50      0          0          0          1
19               CUSTOM       11.08      0          0          0          1
20               CUSTOM       11.00      0          0          0          1
21               CIRCULAR     11.25      0          0          0          1
22               CIRCULAR     11.75      0          0          0          1
24               CUSTOM       12.50      0          0          0          1
23               CIRCULAR     12.75      0          0          0          1
25               CUSTOM       12.50      0          0          0          1
74               CIRCULAR     11.25      0          0          0          1
75               CIRCULAR     11.25      0          0          0          1
78               CIRCULAR     4.75       0          0          0          1
79               CIRCULAR     4.75       0          0          0          1
p462             CIRCULAR     3.00       0          0          0          1
p463             CIRCULAR     4.50       0          0          0          1
p461             CIRCULAR     2.00       0          0          0          1
p481             CIRCULAR     3.50       0          0          0          1
p482             CIRCULAR     4.00       0          0          0          1
p501             CIRCULAR     4.00       0          0          0          1
ppa1             CIRCULAR     1.50       0          0          0          1
p511             CIRCULAR     6.00       0          0          0          1
p513             CIRCULAR     7.50       0          0          0          1
p515             CIRCULAR     8.00       0          0          0          1
p518             CIRCULAR     9.00       0          0          0          1
p5110            CIRCULAR     9.00       0          0          0          1
p512             CIRCULAR     5.33       0          0          0          1
p514             CIRCULAR     3.00       0          0          0          1
p516             CIRCULAR     6.00       0          0          0          1
p517             CIRCULAR     5.50       0          0          0          1
p519             CIRCULAR     3.75       0          0          0          1
p541             CIRCULAR     5.50       0          0          0          1
p551             CIRCULAR     7.25       0          0          0          1
p552             CIRCULAR     8.25       0          0          0          1
p561             RECT_CLOSED  5.75       8.00       0          0          1
p562             RECT_CLOSED  5.75       9.00       0          0          1
p564             RECT_CLOSED  7.50       9.00       0          0          1
p563             RECT_CLOSED  4.00       5.00       0          0          1
cadm             CIRCULAR     3.00       0          0          0          1
cwhl             CIRCULAR     3.00       0          0          0          1
177              CIRCULAR     4.50       0          0          0          1
179              CIRCULAR     4.50       0          0          0          1
181              CIRCULAR     5.50       0          0          0          1
183              CIRCULAR     7.00       0          0          0          1
185              CIRCULAR     7.00       0          0          0          1
187              CIRCULAR     7.00       0          0          0          1
189              CIRCULAR     7.00       0          0          0          1
190              CIRCULAR     7.00       0          0          0          1
c60              CIRCULAR     5.00       0          0          0          1
p601             RECT_CLOSED  7.00       13.50      0          0          1
p611             RECT_CLOSED  5.00       8.50       0          0          1
Link_615         CUSTOM       12.50      0          0          0          1
565              CIRCULAR     11.75      0          0          0          1
566              CIRCULAR     11.75      0          0          0          1
607              CUSTOM       10.00      0          0          0          1
609a             CIRCULAR     7.00       0          0          0          2
611a             CIRCULAR     7.00       0          0          0          2
c56c             CIRCULAR     3.50       0          0          0          1
516.1            RECT_CLOSED  2.00       0          0          0          
527.1            RECT_CLOSED  1.50       0          0          0          
530.1            RECT_CLOSED  1.50       0          0          0          
532.1            RECT_CLOSED  0.83       0          0          0          
537.1            RECT_CLOSED  0.83       0          0          0          
549.1            RECT_CLOSED  2.00       0          0          0          
561.1            RECT_CLOSED  1.25       0          0          0          
563.1            RECT_CLOSED  0.83       0          0          0          
567.1            RECT_CLOSED  1.50       0          0          0          
573.1            RECT_CLOSED  2.00       0          0          0          
611.1            RECT_CLOSED  1.75       0          0          0          
613.1            RECT_CLOSED  1.75       0          0          0          
612a             RECT_CLOSED  3.00       0          0          0          
o62              RECT_CLOSED  8.00       0          0          0          
c83              RECT_CLOSED  1.25       0          0          0          
c56a             RECT_CLOSED  2.50       0          0          0          
o60              RECT_OPEN    0          14.00      0          0          
o61              RECT_OPEN    0          6.25       0          0          
o46              RECT_OPEN    0          5.00       0          0          
o48              RECT_OPEN    0          4.00       0          0          
o49              RECT_OPEN    0          1.25       0          0          
o50              RECT_OPEN    0          4.00       0          0          
o51              RECT_OPEN    0          18.00      0          0          
opa              RECT_OPEN    0          2.00       0          0          
o53              RECT_OPEN    0          1.25       0          0          
o52              RECT_OPEN    0          2.00       0          0          
o54              RECT_OPEN    0          4.50       0          0          
o55              RECT_OPEN    0          6.00       0          0          
c562             RECT_OPEN    0          9.00       0          0          
083              RECT_OPEN    0          12.00      0          0          

[LOSSES]
;;Link           Inlet      Outlet     Average    Flap Gate
;;-------------- ---------- ---------- ---------- ----------
16               0          0          0          NO
17               0          0          0          NO
18               0          0          0          NO
19               0          0          0          NO
20               0          0          0          NO
21               0          0          0          NO
22               0          0          0          NO
24               0          0          0          NO
23               0          0          0          NO
25               0          0          0          NO
74               0          0          0          NO
75               0          0          0          NO
78               0          0          0          NO
79               0          0          0          NO
p462             0          0          0          NO
p463             0          0          0          NO
p461             0          0          0          NO
p481             0          0          0          NO
p482             0          0          0          NO
p501             0          0          0          NO
ppa1             0          0          0          NO
p511             0          0          0          NO
p513             0          0          0          NO
p515             0          0          0          NO
p518             0          0          0          NO
p5110            0          0          0          NO
p512             0          0          0          NO
p514             0          0          0          NO
p516             0          0          0          NO
p517             0          0          0          NO
p519             0          0          0          NO
p541             0          0          0          NO
p551             0          0          0          NO
p552             0          0          0          NO
p561             0          0          0          NO
p562             0          0          0          NO
p564             0          0          0          NO
p563             0          0          0          NO
cadm             0          0          0          NO
cwhl             0          0          0          NO
177              0          0          0          NO
179              0          0          0          NO
181              0          0          0          NO
183              0          0          0          NO
185              0          0          0          NO
187              0          0          0          NO
189              0          0          0          NO
190              0          0          0          NO
c60              0          0          0          NO
p601             0          0          0          NO
p611             0          0          0          NO
Link_615         0          0          0          NO
565              0          0          0          NO
566              0          0          0          NO
607              0          0          0          NO
609a             0          0          0          NO
611a             0          0          0          NO
c56c             0          0          0          NO

[COORDINATES]
;;Node           X-Coord            Y-Coord
;;-------------- ------------------ ------------------
n221             -1037.70           281.18            
academy          759.25             -188.58           
union            1143.33            -217.13           
verdel           1244.49            -214.06           
delevan          1333.60            -216.62           
herbert          1443.10            -219.28           
her34            1527.56            -227.78           
3&4              1628.10            -223.15           
saybk            2041.14            -220.13           
jabez            2571.90            -228.18           
ave              2692.77            -230.05           
wilson           2795.28            -225.72           
fbay             2919.33            -215.22           
city             2176.32            -216.75           
bridge           1897.74            -228.38           
clay             1758.04            -219.61           
so               2569.68            -498.30           
backus           2570.77            -373.71           
n461             1321.46            221.94            
n462             1227.96            266.27            
n463             1227.96            123.91            
reg46            1233.67            -32.18            
n481             1422.56            273.35            
n482             1421.91            107.99            
reg48            1426.95            -28.88            
n501             1623.60            -544.85           
reg50            1624.25            -390.62           
reg49            1619.64            -68.16            
npa1             1750.13            -538.44           
regpa            1756.28            -388.67           
n511             1743.54            645.21            
n513             1743.54            491.81            
n515             1746.39            354.78            
n518             1746.39            213.35            
n5110            1751.45            90.64             
reg51            1751.89            -58.64            
n512             1609.52            566.31            
n514             1606.67            424.38            
n516             1606.67            273.52            
n517             1860.68            341.22            
n519             1603.17            129.73            
reg52            1886.76            -403.76           
reg53            1886.76            -67.14            
n541             2029.72            -548.32           
reg54            2031.92            -387.52           
n551             2029.72            264.25            
n552             2029.72            94.34             
reg55            2036.31            -64.11            
n561             2165.79            429.44            
n562             2165.79            268.19            
n564             2167.55            103.17            
reg56            2170.78            6.11              
n563             2256.88            193.45            
regadm           2454.20            -639.81           
regwhl           2692.39            -638.62           
ss8              2287.75            -758.75           
ss7              2409.49            -758.75           
ss6              2538.69            -753.05           
ss5              2665.91            -753.49           