;; SWMM5 .inp converted from XPSWMM .xp file
;; Generated by XPSWMM Card Reader
;; Source format: XP_CARD | Original title: (none)

[TITLE]
;;Project Title/Notes
Converted from XPSWMM .xp file

[OPTIONS]
FLOW_UNITS           CMS
INFILTRATION         HORTON
FLOW_ROUTING         DYNWAVE
LINK_OFFSETS         DEPTH
MIN_SLOPE            0.0
ALLOW_PONDING        NO
SKIP_STEADY_STATE    NO
ROUTING_STEP         00:00:60
VARIABLE_STEP        0.75
INERTIAL_DAMPING     PARTIAL
NORMAL_FLOW_LIMITED  BOTH
MAX_TRIALS           100

[JUNCTIONS]
;;Name           Elev       MaxDepth   InitDepth  SurDepth   Aponded
;;-------------- ---------- ---------- ---------- ---------- ----------
wx01200          65.41      0          0          0          0
wx6              61.75      0          0          0          0
gc00900          67.33      0          0          0          0
wn05200          56.48      0          0          0          0
pc00200          64.93      0          0          0          0
pc01700          67.36      0          0          0          0
wn04100          64.62      0          0          0          0
wc02600          74.49      0          0          0          0
wc05500          86.29      0          0          0          0
wn02100          61.79      0          0          0          0
cc03100          66.32      0          0          0          0
cc005200         75.18      0          0          0          0
mb-overf         65.99      0          0          0          0
mb02400          65.99      0          0          0          0
cc85             62.09      0          0          0          0
sc00100          63.00      0          0          0          0
SCOT-REG         63.00      0          0          0          0
cc01600          56.85      0          0          0          0
MBAY             65.99      0          0          0          0
SC-MERT          62.09      0          0          0          0
901              62.09      0          0          0          0
wn00600          54.92      0          0          0          0
pr00300          57.67      0          0          0          0
bo00400          59.07      0          0          0          0
pr00100          59.07      0          0          0          0
pr00200          57.49      0          0          0          0
mb04200          71.81      0          0          0          0
bs00100          86.05      0          0          0          0
ic5              57.00      0          0          0          0
ic4              66.05      0          0          0          0
ic3              71.93      0          0          0          0
LL-BOOTH         57.00      0          0          0          0
KENT             39.47      0          0          0          0
knreg            65.84      0          0          0          0
RCANAL           46.80      0          0          0          0
rnreg            66.22      0          0          0          0
CATHCART         39.62      0          0          0          0
catreg           57.00      0          0          0          0
KEEFER           40.23      0          0          0          0
rrreg            55.47      0          0          0          0
rr00800          56.47      0          0          0          0
rr02800          57.13      0          0          0          0
ri00300          57.38      0          0          0          0
rr04000          58.21      0          0          0          0
os2              59.13      0          0          0          0
cc00500          55.23      0          0          0          0
icchbr           59.74      0          0          0          0
ic1b             60.40      0          0          0          0
cc97             57.42      0          0          0          0
903              57.00      0          0          0          0
bolloyd          60.00      0          0          0          0
rr40             63.95      0          0          0          0
rr07500          75.93      0          0          0          0
hl12             61.72      0          0          0          0
HEM3             58.77      0          0          0          0
rm22             58.77      0          0          0          0
HEM2             46.02      0          0          0          0
HEM1             46.67      0          0          0          0
hra              46.67      0          0          0          0
xxb              46.02      0          0          0          0
os3              68.58      0          0          0          0
os4              83.82      0          0          0          0
bd3              62.36      0          0          0          0
ah1              61.66      0          0          0          0
ah4              62.30      0          0          0          0
ah1a             62.42      0          0          0          0
aw8              64.22      0          0          0          0
457              61.66      0          0          0          0
HEM4             61.66      0          0          0          0
os5              65.64      0          0          0          0
os6              56.39      0          0          0          0
grit             52.54      0          0          0          0
ROPEC-OUT        52.42      0          0          0          0
ROPEC-BY         52.00      0          0          0          0
cc02200          63.74      0          0          0          0
os1              55.47      0          0          0          0
162              59.74      0          0          0          0
gc02000          79.61      0          0          0          0
pc03800          68.52      0          0          0          0
bl01500          91.59      0          0          0          0
icchbr           59.74      0          0          0          0
pr12             57.49      0          0          0          0
bo7b             72.00      0          0          0          0
BOOTH-REG        60.00      0          0          0          0
pr13             57.67      0          0          0          0
cc95a            55.23      0          0          0          0
PREST-REG        57.42      0          0          0          0
ic1b             60.40      0          0          0          0
ic3              71.93      0          0          0          0
ic4              66.05      0          0          0          0
ic5              57.00      0          0          0          0
rr43             75.93      0          0          0          0
rr40             63.95      0          0          0          0
rr10             58.21      0          0          0          0
ri0400           57.42      0          0          0          0
rr02800          57.13      0          0          0          0
rrr              56.47      0          0          0          0
os1              55.47      0          0          0          0
rm22             58.77      0          0          0          0
xxb              46.02      0          0          0          0
hl12             61.72      0          0          0          0
os2              59.13      0          0          0          0
bd3              62.36      0          0          0          0
ah1              61.66      0          0          0          0
aw8              64.22      0          0          0          0
ah1a             62.42      0          0          0          0
ah4              62.30      0          0          0          0
os3              68.58      0          0          0          0
os4              83.82      0          0          0          0
os5              65.64      0          0          0          0
os6              56.39      0          0          0          0
gnshft1          59.13      0          0          0          0
ROPEC-OUT        52.42      0          0          0          0
903              57.00      0          0          0          0
LL/BO-OUT        57.00      0          0          0          0
KENT-REG         65.84      0          0          0          0
rating           65.84      0          0          0          0
RCAN-REG         66.22      0          0          0          0
RAN-RT           66.22      0          0          0          0
CATH-REG         57.00      0          0          0          0
CAT              57.00      0          0          0          0
RRIVER-REG       55.47      0          0          0          0
RRIVER           55.47      0          0          0          0
hra              46.67      0          0          0          0
HEM1             46.67      0          0          0          0
HEM2             46.02      0          0          0          0
457              61.66      0          0          0          0
HEM4             61.66      0          0          0          0
HEM3             58.77      0          0          0          0
grit             52.54      0          0          0          0
ROPEC-BY         52.00      0          0          0          0
ss15             57.03      0          0          0          0
ss14             57.24      0          0          0          0
ss10             57.98      0          0          0          0
ss5              57.41      0          0          0          0
qe7              68.14      0          0          0          0
cl3              65.10      0          0          0          0
cl11             66.19      0          0          0          0
rr1              60.00      0          0          0          0
ocr21            68.54      0          0          0          0
ocr3             68.25      0          0          0          0
ocr7             68.55      0          0          0          0
ar19             67.18      0          0          0          0
ar25             68.89      0          0          0          0
ar33             69.49      0          0          0          0
ar1              69.71      0          0          0          0
ar5              68.52      0          0          0          0
ar11             66.97      0          0          0          0
ar15             68.89      0          0          0          0
ar16             68.58      0          0          0          0
ml1              68.35      0          0          0          0
lyn3             67.04      0          0          0          0
cs1              67.82      0          0          0          0
cs3              66.73      0          0          0          0
ly6              68.86      0          0          0          0
ly1              69.30      0          0          0          0
hw6              65.23      0          0          0          0
hw1              68.52      0          0          0          0
ocr1             67.67      0          0          0          0
fl1              71.06      0          0          0          0
wa1              71.39      0          0          0          0
wa6              68.95      0          0          0          0
bk1              67.13      0          0          0          0
bk4              67.74      0          0          0          0
pr5              67.00      0          0          0          0
pr17             62.42      0          0          0          0
pr22             60.60      0          0          0          0
pr1a             65.08      0          0          0          0
mid              68.89      0          0          0          0
qe-ic            68.14      0          0          0          0
qe7a             68.14      0          0          0          0
ar5-11           68.52      0          0          0          0
ar11-15          66.97      0          0          0          0
ar15-16          68.89      0          0          0          0
639              68.89      0          0          0          0
645              68.25      0          0          0          0
prmid1           57.43      0          0          0          0
652              59.07      0          0          0          0
prmid2           59.07      0          0          0          0
rr1out           57.16      0          0          0          0
ri0500           57.39      0          0          0          0
tu1              57.13      0          0          0          0
oc-relief1       65.10      0          0          0          0
oc-relief2       68.52      0          0          0          0
oc-relief3       67.18      0          0          0          0
oc-relief4       68.00      0          0          0          0
oc-end           68.00      0          0          0          0
ri0300           57.39      0          0          0          0
ri0200           57.90      0          0          0          0
cl3a             65.23      0          0          0          0
719              68.50      0          0          0          0
729              72.00      0          0          0          0
737              65.00      0          0          0          0
739              68.00      0          0          0          0
754              78.50      0          0          0          0
756              73.50      0          0          0          0
772              72.00      0          0          0          0
787              60.00      0          0          0          0
KENT-OUT         65.84      0          0          0          0
RCAN-OUT         66.22      0          0          0          0
CATH-OUT         57.00      0          0          0          0
808              68.14      0          0          0          0
RRIVER-OUT       55.47      0          0          0          0
819              57.13      0          0          0          0
WN/CC            57.68      0          0          0          0
NEW-BO           59.74      0          0          0          0
gnshft5          66.32      0          0          0          0
shaft            52.54      0          0          0          0
ri00600          60.00      0          0          0          0
470              0          0          0          0          0
472              0          0          0          0          0
474              0          0          0          0          0

[STORAGE]
;;Name           Elev       MaxDepth   InitDepth  Shape      Curve/Params
;;-------------- ---------- ---------- ---------- ---------- ----------
lfhem            46.72      0          0          FUNCTIONAL 9.35 0          0
oschbr           52.42      0          0          FUNCTIONAL 41.11 0          0
lfhem            46.72      0          0          FUNCTIONAL 9.35 0          0
oschbr           52.42      0          0          FUNCTIONAL 34.74 0          0
cs6              68.19      -3.19      0          FUNCTIONAL 2000.00 0          0

[CONDUITS]
;;Name           From             To               Length     Roughness  InOffset   OutOffset  InitFlow   MaxFlow
;;-------------- ---------------- ---------------- ---------- ---------- ---------- ---------- ---------- ----------
Link_212         ?                ?                1667.60    0.0130     69.32      62.64      0          0
Link_245         ?                ?                1496.00    0.0130     34.90      32.93      0          0
Link_254         ?                ?                460.30     0.0130     59.13      56.21      0          0
Link_262         ?                ?                431.90     0.0130     34.90      34.50      0          0
Link_263         ?                ?                398.70     0.0130     36.49      34.90      0          0
Link_271         ?                ?                2099.50    0.0130     37.16      35.27      0          0
Link_272         ?                ?                1529.50    0.0130     38.55      37.16      0          0
wn83             wx01200          wx6              672.20     0.0150     56.28      55.64      0          0
gc8              gc00900          wx6              1131.24    0.0150     60.02      57.70      0          0
wn80             wx6              wn05200          3473.10    0.0150     55.64      52.36      0          0
pc2              pc00200          wn05200          260.10     0.0150     58.93      53.22      0          0
pc17             pc01700          pc00200          1302.30    0.0150     60.83      58.93      0          0
wn52             wn05200          wn04100          1474.50    0.0150     52.36      51.27      0          0
wn41             wn04100          wn02100          3037.60    0.0150     51.27      49.63      0          0
wc26             wc02600          wn04100          1574.70    0.0150     70.22      59.70      0          0
wc55             wc05500          wc02600          2313.80    0.0150     72.73      70.22      0          0
wn21             wn02100          wn00600          2110.10    0.0150     49.51      47.88      0          0
cc51+            cc005200         cc03100          1667.56    0.0150     69.32      62.64      0          0
ca8              cc03100          cc02200          999.60     0.0150     62.64      57.36      0          0
cc81+            cc02200          cc85             130.70     0.0150     57.36      54.12      0          0
902              mb-overf         MBAY             1000.00    0.0150     63.50      60.00      0          0
MOONEY           mb-overf         mb02400          250.00     0.0150     63.00      62.00      0          0
mb42             mb04200          mb02400          3001.90    0.0150     66.41      59.33      0          0
mb11             mb02400          cc01600          1225.90    0.0150     59.33      49.83      0          0
cc85+            cc85             cc01600          89.41      0.0150     54.12      54.00      0          0
SC-IN            sc00100          SCOT-REG         100.00     0.0150     54.75      54.50      0          0
SC-THR           SCOT-REG         cc01600          25.00      0.0150     54.50      54.00      0          0
9001             901              SC-MERT          500.00     0.0150     53.50      51.00      0          0
cc17             cc01600          cc00500          1239.00    0.0150     54.00      50.47      0          0
wn6              wn00600          WN/CC            700.40     0.0150     47.88      47.08      0          0
pl1              pr00200          bo00400          794.90     0.0150     54.74      49.93      0          0
pr1              pr00100          cc00500          499.90     0.0150     53.25      50.29      0          0
bo5              bo00400          bolloyd          804.70     0.0150     49.57      46.43      0          0
pr2              pr00200          pr00100          325.80     0.0150     53.83      53.25      0          0
pr3              pr00300          pr00200          49.00      0.0150     53.98      53.88      0          0
ps1              pr00100          bo00400          6.20       0.0150     53.48      49.57      0          0
mb81             bs00100          mb04200          3084.40    0.0150     80.80      66.41      0          0
os9              ic5              os1              756.90     0.0150     40.77      39.85      0          0
os10             ic4              ic5              1270.10    0.0150     41.80      40.77      0          0
os11             ic3              ic4              970.50     0.0150     42.88      41.80      0          0
os15             ic1b             ic3              1050.20    0.0150     43.93      42.88      0          0
9003             903              LL-BOOTH         500.00     0.0150     45.00      42.50      0          0
cc4              cc00500          WN/CC            108.10     0.0150     50.29      49.74      0          0
9004             knreg            KENT             50.00      0.0150     62.18      38.25      0          0
RKENT            knreg            ic3              188.60     0.0150     61.57      43.79      0          0
9005             rnreg            RCANAL           453.00     0.0150     49.52      30.94      0          0
RCAN             rnreg            ic4              4.00       0.0150     48.32      47.45      0          0
9006             catreg           CATHCART         657.00     0.0150     50.35      30.50      0          0
CATH             catreg           ic5              4.80       0.0150     49.21      48.08      0          0
9007             rrreg            KEEFER           933.00     0.0150     47.54      30.48      0          0
KEEF             rrreg            os1              100.00     0.0150     46.47      40.56      0          0
rr7              rr00800          rrreg            526.70     0.0150     48.98      47.62      0          0
rr26             rr02800          rr00800          1697.20    0.0150     51.66      48.98      0          0
ri3              ri00300          rr02800          1824.00    0.0150     53.92      51.66      0          0
rr36             rr04000          rr02800          1421.00    0.0150     52.53      52.15      0          0
rr67             rr40             rr04000          3681.40    0.0150     54.32      52.53      0          0
os7              os1              os2              1468.10    0.0150     39.85      38.55      0          0
os6#             os2              os3              1529.49    0.0150     38.55      37.16      0          0
os16             icchbr           ic1b             90.20      0.0150     44.81      43.93      0          0
cc2              cc97             ic1b             72.20      0.0150     49.74      44.30      0          0
bo2              bolloyd          ic1b             49.20      0.0150     46.22      44.30      0          0
BOOTH            bolloyd          903              250.00     0.0150     46.63      45.00      0          0
PRESTN           cc97             903              250.00     0.0150     50.64      45.00      0          0
rr70             rr07500          rr40             259.10     0.0150     56.39      55.60      0          0
hl12#            hl12             os2              460.35     0.0150     59.13      56.21      0          0
rm-ovf           rm22             HEM3             100.00     0.0150     54.44      51.94      0          0
hl38             rm22             xxb              908.70     0.0150     54.10      44.13      0          0
xxb-ovf          xxb              HEM2             100.00     0.0150     44.23      43.73      0          0
hra-ovf          hra              HEM1             100.00     0.0150     45.05      44.55      0          0
hl26             xxb              lfhem            9.70       0.0150     43.92      43.88      0          0
hraa             hra              lfhem            10.00      0.0150     44.74      44.73      0          0
ah8              ah4              os3              517.80     0.0150     58.39      57.49      0          0
os5#             os3              os4              2099.46    0.0150     37.16      35.27      0          0
os4#             os4              os5              398.68     0.0150     35.27      34.90      0          0
bd2              bd3              ah1              117.00     0.0150     59.26      58.98      0          0
458              ah1              457              100.00     0.0150     59.13      58.38      0          0
ah11             ah1              ah4              129.00     0.0150     58.75      58.54      0          0
aw1              ah1a             ah4              54.30      0.0150     60.07      59.75      0          0
aw2              aw8              ah1a             205.70     0.0150     61.88      60.30      0          0
459              ah1a             457              100.00     0.0150     60.30      58.63      0          0
ah-ovf           457              HEM4             100.00     0.0150     58.63      58.13      0          0
os3#             os5              os6              431.90     0.0150     34.90      34.50      0          0
os2#             os6              oschbr           1495.96    0.0150     34.50      32.93      0          0
outfall          grit             ROPEC-OUT        500.00     0.0150     46.54      37.00      0          0
BY-ROPEC         oschbr           ROPEC-BY         200.00     0.0150     45.11      44.11      0          0
165              162              icchbr           90.00      0.0150     47.08      46.73      0          0
167              gc02000          gc00900          944.88     0.0130     70.90      60.08      0          0
169              pc03800          pc01700          1538.03    0.0130     62.77      60.83      0          0
171              bl01500          wc05500          1375.25    0.0130     87.49      76.10      0          0
bthofg           icchbr           903              128.12     0.0150     47.19      46.51      0          0
Link_397         ?                ?                460.30     0.0130     59.13      56.21      0          0
Link_398         ?                ?                1496.00    0.0130     34.90      32.93      0          0
Link_404         ?                ?                431.90     0.0130     34.90      34.50      0          0
Link_405         ?                ?                398.70     0.0130     36.49      34.90      0          0
Link_406         ?                ?                2099.50    0.0130     37.16      35.27      0          0
Link_407         ?                ?                1529.50    0.0130     38.55      37.16      0          0
os16             icchbr           ic1b             90.20      0.0150     44.81      43.93      0          0
bo5              bo7b             BOOTH-REG        804.70     0.0150     49.57      46.43      0          0
pr3              pr13             pr12             49.00      0.0150     53.98      53.88      0          0
cc4              cc95a            PREST-REG        108.10     0.0150     50.29      49.74      0          0
os15             ic1b             ic3              1050.20    0.0150     43.93      42.88      0          0
os11             ic3              ic4              970.50     0.0150     42.88      41.80      0          0
os10             ic4              ic5              1270.10    0.0150     41.80      40.77      0          0
os9              ic5              os1              756.90     0.0150     40.77      39.85      0          0
rr70             rr43             rr40             259.10     0.0150     56.39      55.60      0          0
rr67             rr40             rr10             3681.40    0.0150     54.32      52.53      0          0
rr36             rr10             rr02800          1421.00    0.0150     52.53      52.15      0          0
os7              os1              os2              1468.10    0.0150     39.85      38.55      0          0
hl38             rm22             xxb              908.70     0.0150     54.10      44.13      0          0
hl26             xxb              lfhem            9.70       0.0150     43.92      43.88      0          0
hl12+            hl12             os2              460.35     0.0150     59.13      56.21      0          0
os6+             os2              os3              1529.49    0.0150     38.55      37.16      0          0
bd2              bd3              ah1              117.00     0.0150     59.26      58.98      0          0
ah11             ah1              ah4              129.00     0.0150     58.75      58.54      0          0
aw2              aw8              ah1a             205.70     0.0150     61.88      60.30      0          0
aw1              ah1a             ah4              54.30      0.0150     60.07      59.75      0          0
ah8              ah4              os3              517.80     0.0150     58.39      57.49      0          0
os5+             os3              os4              2099.46    0.0150     37.16      35.27      0          0
os4+             os4              os5              398.68     0.0150     35.27      34.90      0          0
os3+             os5              os6              431.90     0.0150     34.90      34.50      0          0
os2+             os6              oschbr           1495.96    0.0150     34.50      32.93      0          0
gn8              gnshft5          gnshft1          3375.20    0.0150     56.00      52.45      0          0
PRESTN           PREST-REG        903              250.00     0.0150     50.64      45.00      0          0
LL/BO-OV         903              LL/BO-OUT        500.00     0.0150     45.00      42.50      0          0
BOOTH-TH         BOOTH-REG        ic1b             49.20      0.0150     46.22      44.30      0          0
PREST-TH         PREST-REG        ic1b             72.20      0.0150     49.74      44.30      0          0
KENTth           KENT-REG         ic3              188.60     0.0150     61.57      43.79      0          0
RCANth           RCAN-REG         ic4              4.00       0.0150     48.32      47.45      0          0
CATHth           CATH-REG         ic5              4.80       0.0150     49.21      48.08      0          0
rr7              rrr              RRIVER-REG       526.70     0.0150     48.98      47.62      0          0
KEEFth           RRIVER-REG       os1              100.00     0.0150     46.47      40.56      0          0
hra-ovf          hra              HEM1             100.00     0.0150     45.05      44.55      0          0
hraa             hra              lfhem            10.00      0.0150     44.74      44.73      0          0
xxb-ovf          xxb              HEM2             100.00     0.0150     44.23      43.73      0          0
458              ah1              457              100.00     0.0150     59.13      58.38      0          0
459              ah1a             457              100.00     0.0150     60.30      58.63      0          0
ah-ovf           457              HEM4             100.00     0.0150     58.63      58.13      0          0
rm-ovf           rm22             HEM3             100.00     0.0150     54.44      51.94      0          0
sh-gr            shaft            grit             200.00     0.0150     48.50      48.40      0          0
gn3+             gnshft1          grit             1160.10    0.0150     52.45      46.54      0          0