;; SWMM5 .inp converted from XPSWMM .xp file
;; Generated by XPSWMM Card Reader
;; Source format: XP_CARD | Original title: hakken 30-100

[TITLE]
;;Project Title/Notes
hakken 30-100

[OPTIONS]
FLOW_UNITS           CMS
INFILTRATION         HORTON
FLOW_ROUTING         DYNWAVE
LINK_OFFSETS         DEPTH
MIN_SLOPE            0.0
ALLOW_PONDING        NO
SKIP_STEADY_STATE    NO
ROUTING_STEP         00:00:04
VARIABLE_STEP        0.75
INERTIAL_DAMPING     PARTIAL
NORMAL_FLOW_LIMITED  BOTH
MAX_TRIALS           50
HEAD_TOLERANCE       .001

[JUNCTIONS]
;;Name           Elev       MaxDepth   InitDepth  SurDepth   Aponded
;;-------------- ---------- ---------- ---------- ---------- ----------
111-1            1.63       0          0          0          0
122-1            1.82       0          0          0          0
155-1            1.81       0          0          0          0
109-1            2.03       0          0          0          0
168-1            1.97       0          0          0          0
175-1            1.97       0          0          0          0
190-1            2.05       0          0          0          0
197-1            2.09       0          0          0          0
1-1              2.01       0          0          0          0
2-1              1.86       0          0          0          0
3-1              2.02       0          0          0          0
4-1              1.98       0          0          0          0
5-1              1.87       0          0          0          0
6-1              1.83       0          0          0          0
7-1              1.84       0          0          0          0
8-1              1.76       0          0          0          0
9-1              1.72       0          0          0          0
10-1             2.11       0          0          0          0
11-1             2.73       0          0          0          0
12-1             2.16       0          0          0          0
120-1            1.69       0          0          0          0
143-1            1.78       0          0          0          0
152-1            2.13       0          0          0          0
165-1            1.93       0          0          0          0
179-1            2.22       0          0          0          0
189-1            2.03       0          0          0          0
264-1            1.90       0          0          0          0
237-1            2.13       0          0          0          0
246-1            2.33       0          0          0          0
248-1            2.23       0          0          0          0
251-1            1.88       0          0          0          0
253-1            1.74       0          0          0          0
258-1            2.45       0          0          0          0
247-1            2.03       0          0          0          0
241-1            1.61       0          0          0          0
243-1            1.66       0          0          0          0
256-1            1.70       0          0          0          0
222-1            1.80       0          0          0          0
194-1            2.39       0          0          0          0
196-1            2.34       0          0          0          0
188-1            2.53       0          0          0          0
178-1            2.33       0          0          0          0
182-1            2.49       0          0          0          0
186-1            2.54       0          0          0          0
113-1            1.71       0          0          0          0
141-1            1.74       0          0          0          0
139-1            1.89       0          0          0          0
154-1            2.01       0          0          0          0
164-1            2.05       0          0          0          0
161-1            2.11       0          0          0          0
159-1            2.27       0          0          0          0
157-1            2.31       0          0          0          0
192-1            2.27       0          0          0          0
207-1            2.14       0          0          0          0
220-1            1.84       0          0          0          0
261-1            1.68       0          0          0          0
239-1            2.03       0          0          0          0
267-1            1.80       0          0          0          0
107-1            2.04       0          0          0          0
106-1            1.81       0          0          0          0
115-1            1.57       0          0          0          0
117-1            1.54       0          0          0          0
118-1            1.59       0          0          0          0
116-1            1.69       0          0          0          0
137-1            2.13       0          0          0          0
163-1            2.11       0          0          0          0
177-1            2.55       0          0          0          0
176-1            2.41       0          0          0          0
181-1            2.71       0          0          0          0
185-1            2.33       0          0          0          0
191-1            2.08       0          0          0          0
187-1            2.49       0          0          0          0
203-1            2.16       0          0          0          0
202-1            2.21       0          0          0          0
204-1            2.21       0          0          0          0
212-1            2.05       0          0          0          0
213-1            2.01       0          0          0          0
219-1            2.15       0          0          0          0
218-1            1.88       0          0          0          0
217-1            1.88       0          0          0          0
140-1            1.89       0          0          0          0
229-1            1.78       0          0          0          0
227-1            1.85       0          0          0          0
252-1            1.85       0          0          0          0
236-1            2.10       0          0          0          0
238-1            2.05       0          0          0          0
240-1            1.59       0          0          0          0
242-1            1.77       0          0          0          0
235-1            2.32       0          0          0          0
255-1            2.16       0          0          0          0
257-1            2.24       0          0          0          0
249-1            1.61       0          0          0          0
250-1            1.62       0          0          0          0
263-1            1.74       0          0          0          0
262-1            1.93       0          0          0          0
266-1            1.93       0          0          0          0
121-1            1.59       0          0          0          0
130-1            1.74       0          0          0          0
127-1            1.78       0          0          0          0
172-1            1.96       0          0          0          0
174-1            1.96       0          0          0          0
104-1            1.50       0          0          0          0
173-1            1.99       0          0          0          0
110-1            1.55       0          0          0          0
114-1            1.66       0          0          0          0
135-1            1.96       0          0          0          0
133-1            1.85       0          0          0          0
101-1            1.94       0          0          0          0
102-1            1.66       0          0          0          0
103-1            1.64       0          0          0          0
112-1            1.79       0          0          0          0
126-1            1.80       0          0          0          0
124-1            1.80       0          0          0          0
134-1            1.81       0          0          0          0
129-1            1.78       0          0          0          0
128-1            1.91       0          0          0          0
153-1            2.01       0          0          0          0
149-1            1.73       0          0          0          0
151-1            2.09       0          0          0          0
148-1            2.16       0          0          0          0
147-1            2.11       0          0          0          0
146-1            2.17       0          0          0          0
145-1            2.03       0          0          0          0
144-1            2.27       0          0          0          0
150-1            2.27       0          0          0          0
158-1            2.20       0          0          0          0
156-1            2.44       0          0          0          0
162-1            2.22       0          0          0          0
169-1            1.99       0          0          0          0
171-1            1.99       0          0          0          0
170-1            1.99       0          0          0          0
180-1            2.30       0          0          0          0
184-1            2.10       0          0          0          0
183-1            2.22       0          0          0          0
270-1            2.07       0          0          0          0
269-1            2.51       0          0          0          0
268-1            1.67       0          0          0          0
245-1            2.38       0          0          0          0
198-1            2.36       0          0          0          0
125-1            1.86       0          0          0          0
167-1            1.96       0          0          0          0
166-1            1.96       0          0          0          0
131-1            1.77       0          0          0          0
123-1            2.15       0          0          0          0
119-1            1.73       0          0          0          0
136-1            2.07       0          0          0          0
132-1            1.69       0          0          0          0
142-1            1.96       0          0          0          0
108-1            1.99       0          0          0          0
105-1            1.50       0          0          0          0
160-1            2.16       0          0          0          0
193-1            2.53       0          0          0          0
254-1            1.66       0          0          0          0
195-1            2.34       0          0          0          0
199-1            2.21       0          0          0          0
201-1            2.12       0          0          0          0
200-1            2.25       0          0          0          0
208-1            2.06       0          0          0          0
209-1            1.91       0          0          0          0
205-1            2.14       0          0          0          0
206-1            2.10       0          0          0          0
210-1            2.23       0          0          0          0
211-1            2.19       0          0          0          0
226-1            1.84       0          0          0          0
228-1            1.68       0          0          0          0
630              1.87       0          0          0          0
265-1            2.59       0          0          0          0
259-1            2.23       0          0          0          0
231-1            1.69       0          0          0          0
230-1            1.74       0          0          0          0
260-1            1.62       0          0          0          0
221-1            1.89       0          0          0          0
214-1            1.94       0          0          0          0
215-1            1.96       0          0          0          0
223-1            1.84       0          0          0          0
225-1            1.83       0          0          0          0
224-1            1.84       0          0          0          0
234-1            1.76       0          0          0          0
233-1            1.65       0          0          0          0
232-1            1.67       0          0          0          0
216-1            1.98       0          0          0          0
244-1            2.13       0          0          0          0
138-1            1.92       0          0          0          0
686              1.87       0          0          0          0

[CONDUITS]
;;Name           From             To               Length     Roughness  InOffset   OutOffset  InitFlow   MaxFlow
;;-------------- ---------------- ---------------- ---------- ---------- ---------- ---------- ---------- ----------
109              109-1            111-1            109.00     0.0130     -0.82      -0.98      0          0
155              155-1            168-1            84.00      0.0130     -2.26      -2.32      0          0
168              168-1            175-1            41.00      0.0130     -2.42      -2.44      0          0
190              190-1            197-1            52.00      0.0130     -2.78      -2.82      0          0
197              197-1            1-1              68.00      0.0130     -2.92      -2.97      0          0
2                2-1              3-1              61.00      0.0130     -3.42      -3.47      0          0
3                3-1              4-1              36.00      0.0130     -3.49      -3.51      0          0
4                4-1              5-1              24.00      0.0130     -3.53      -3.55      0          0
5                5-1              6-1              34.00      0.0130     -3.57      -3.59      0          0
6                6-1              7-1              25.00      0.0130     -3.61      -3.63      0          0
7                7-1              8-1              28.00      0.0130     -3.65      -3.67      0          0
8                8-1              9-1              37.00      0.0130     -3.69      -3.72      0          0
9                9-1              10-1             56.00      0.0130     -4.02      -4.06      0          0
10               10-1             11-1             28.00      0.0130     -4.08      -4.10      0          0
11               11-1             12-1             277.00     0.0130     -4.12      -4.31      0          0
120              120-1            122-1            160.00     0.0130     -0.16      -0.46      0          0
143              143-1            155-1            5.00       0.0130     -1.28      -1.28      0          0
165              165-1            168-1            5.00       0.0130     -0.42      -0.43      0          0
189              189-1            190-1            70.00      0.0130     -0.19      -0.27      0          0
264              264-1            9-1              117.00     0.0130     -0.40      -0.58      0          0
244              244-1            246-1            76.00      0.0130     0.44       0.24       0          0
246              246-1            248-1            87.00      0.0130     -0.01      -0.14      0          0
248              248-1            251-1            62.00      0.0130     -0.34      -0.42      0          0
251              251-1            253-1            61.00      0.0130     -1.03      -1.09      0          0
253              253-1            258-1            57.00      0.0130     -1.53      -1.57      0          0
239              239-1            241-1            91.00      0.0130     -0.33      -0.46      0          0
241              241-1            243-1            77.00      0.0130     -0.71      -0.81      0          0
243              243-1            253-1            129.00     0.0130     -1.01      -1.14      0          0
256              256-1            258-1            142.00     0.0130     -0.47      -0.69      0          0
222              222-1            5-1              6.00       0.0130     -0.40      -0.41      0          0
194              194-1            196-1            65.00      0.0130     -0.27      -0.36      0          0
196              196-1            197-1            69.00      0.0130     -0.46      -0.55      0          0
188              188-1            189-1            69.00      0.0130     0.01       -0.09      0          0
186              186-1            188-1            80.00      0.0130     0.36       0.21       0          0
113              113-1            122-1            117.00     0.0130     -1.53      -1.63      0          0
111              111-1            113-1            6.00       0.0130     -1.38      -1.38      0          0
141              141-1            143-1            4.00       0.0130     -1.25      -1.26      0          0
139              139-1            141-1            114.00     0.0130     -1.02      -1.16      0          0
164              164-1            165-1            21.00      0.0130     -0.38      -0.40      0          0
161              161-1            164-1            15.00      0.0130     -0.26      -0.28      0          0
159              159-1            161-1            69.00      0.0130     0.13       0.02       0          0
157              157-1            159-1            47.00      0.0130     0.45       0.36       0          0
192              192-1            194-1            89.00      0.0130     0.10       -0.07      0          0
220              220-1            222-1            33.00      0.0130     -0.23      -0.30      0          0
258              258-1            261-1            136.00     0.0130     -1.73      -1.82      0          0
261              261-1            9-1              5.00       0.0130     -1.84      -1.84      0          0
106              106-1            109-1            47.00      0.0130     -0.28      -0.42      0          0
117              117-1            118-1            2.00       0.0130     -0.03      -0.04      0          0
181              181-1            182-1            49.00      0.0130     0.32       0.20       0          0
185              185-1            186-1            44.00      0.0130     0.69       0.56       0          0
191              191-1            192-1            49.00      0.0130     0.45       0.30       0          0
187              187-1            188-1            49.00      0.0130     0.96       0.76       0          0
202              202-1            203-1            53.00      0.0130     0.63       0.44       0          0
212              212-1            213-1            47.00      0.0130     0.11       0.02       0          0
219              219-1            220-1            56.00      0.0130     0.53       0.31       0          0
252              252-1            253-1            63.00      0.0130     0.21       0.03       0          0
237              237-1            239-1            82.00      0.0130     -0.01      -0.14      0          0
240              240-1            241-1            49.00      0.0130     0.01       -0.16      0          0
242              242-1            243-1            68.00      0.0130     0.19       -0.05      0          0
249              249-1            250-1            83.00      0.0130     -0.13      -0.33      0          0
250              250-1            251-1            51.00      0.0130     -0.43      -0.53      0          0
172              172-1            174-1            39.00      0.0130     0.48       0.31       0          0
110              110-1            111-1            68.00      0.0130     -0.09      -0.29      0          0
101              101-1            102-1            35.00      0.0130     0.00       -0.08      0          0
102              102-1            104-1            35.00      0.0130     -0.28      -0.35      0          0
103              103-1            104-1            39.00      0.0130     0.11       -0.05      0          0
104              104-1            111-1            195.00     0.0130     -0.57      -0.84      0          0
124              124-1            126-1            59.00      0.0130     0.27       0.03       0          0
116              116-1            117-1            43.00      0.0130     0.16       -0.01      0          0
135              135-1            137-1            28.00      0.0130     -0.51      -0.56      0          0
134              134-1            135-1            77.00      0.0130     -0.22      -0.41      0          0
129              129-1            130-1            23.00      0.0130     0.30       0.20       0          0
128              128-1            130-1            36.00      0.0130     0.42       0.26       0          0
153              153-1            154-1            80.00      0.0130     0.43       0.15       0          0
121              121-1            122-1            148.00     0.0130     -0.04      -0.49      0          0
149              149-1            151-1            53.00      0.0130     0.25       0.01       0          0
151              151-1            152-1            64.00      0.0130     -0.24      -0.39      0          0
148              148-1            152-1            27.00      0.0130     0.08       0.01       0          0
146              146-1            148-1            64.00      0.0130     0.41       0.18       0          0
145              145-1            146-1            10.00      0.0130     0.55       0.51       0          0
150              150-1            151-1            49.00      0.0130     0.68       0.51       0          0
144              144-1            146-1            11.00      0.0130     0.74       0.69       0          0
156              156-1            157-1            60.00      0.0130     0.70       0.55       0          0
173              173-1            174-1            30.00      0.0130     0.51       0.38       0          0
163              163-1            164-1            57.00      0.0130     0.23       0.12       0          0
162              162-1            163-1            53.00      0.0130     0.58       0.43       0          0
169              169-1            171-1            43.00      0.0130     0.46       0.29       0          0
170              170-1            171-1            36.00      0.0130     0.51       0.35       0          0
171              171-1            175-1            3.00       0.0130     0.24       0.23       0          0
178              178-1            179-1            76.00      0.0130     0.06       -0.07      0          0
177              177-1            178-1            80.00      0.0130     0.31       0.16       0          0
176              176-1            177-1            77.00      0.0130     0.83       0.56       0          0
180              180-1            181-1            83.00      0.0130     0.67       0.42       0          0
184              184-1            190-1            67.00      0.0130     -2.63      -2.68      0          0
175              175-1            184-1            100.00     0.0130     -2.46      -2.54      0          0
183              183-1            184-1            12.00      0.0130     0.68       0.62       0          0
179              179-1            184-1            14.00      0.0130     -0.09      -0.11      0          0
269              269-1            270-1            22.00      0.0130     0.69       0.59       0          0
268              268-1            270-1            49.00      0.0130     0.19       -0.03      0          0
236              236-1            237-1            51.00      0.0130     0.52       0.34       0          0
238              238-1            239-1            25.00      0.0130     0.52       0.42       0          0
245              245-1            246-1            65.00      0.0130     0.74       0.55       0          0
114              114-1            115-1            40.00      0.0130     0.18       0.00       0          0
112              112-1            113-1            80.00      0.0130     0.15       -0.09      0          0
125              125-1            126-1            16.00      0.0130     0.38       0.31       0          0
174              174-1            175-1            2.00       0.0130     0.26       0.25       0          0
167              167-1            168-1            4.00       0.0130     0.26       0.25       0          0
166              166-1            167-1            44.00      0.0130     0.48       0.28       0          0
122              122-1            131-1            33.00      0.0130     -1.77      -1.80      0          0
131              131-1            155-1            84.00      0.0130     -1.95      -2.01      0          0
154              154-1            155-1            42.00      0.0130     -0.74      -0.80      0          0
123              123-1            126-1            72.00      0.0130     0.56       0.27       0          0
126              126-1            131-1            4.00       0.0130     -0.12      -0.13      0          0
130              130-1            131-1            5.00       0.0130     -0.15      -0.16      0          0
127              127-1            130-1            82.00      0.0130     0.14       -0.10      0          0
115              115-1            118-1            4.00       0.0130     -0.02      -0.04      0          0
118              118-1            119-1            99.00      0.0130     -0.39      -0.57      0          0
119              119-1            122-1            102.00     0.0130     -0.67      -0.84      0          0
136              136-1            137-1            54.00      0.0130     0.43       0.27       0          0
133              133-1            134-1            24.00      0.0130     0.37       0.26       0          0
132              132-1            134-1            41.00      0.0130     0.21       0.03       0          0
140              140-1            141-1            117.00     0.0130     0.20       -0.10      0          0
142              142-1            143-1            44.00      0.0130     0.48       0.28       0          0
108              108-1            109-1            16.00      0.0130     0.51       0.44       0          0
105              105-1            106-1            38.00      0.0130     -0.03      -0.18      0          0
107              107-1            109-1            20.00      0.0130     0.35       0.30       0          0
158              158-1            159-1            36.00      0.0130     0.67       0.53       0          0
160              160-1            161-1            116.00     0.0130     0.42       0.14       0          0
147              147-1            148-1            64.00      0.0130     0.58       0.32       0          0
152              152-1            154-1            34.00      0.0130     -0.59      -0.65      0          0
182              182-1            184-1            139.00     0.0130     -0.00      -0.22      0          0
193              193-1            194-1            60.00      0.0130     0.95       0.74       0          0
235              235-1            237-1            82.00      0.0130     0.63       0.42       0          0
247              247-1            248-1            109.00     0.0130     0.18       -0.03      0          0
257              257-1            258-1            59.00      0.0130     0.71       0.47       0          0
254              254-1            256-1            55.00      0.0130     0.08       -0.12      0          0
255              255-1            256-1            27.00      0.0130     0.34       0.22       0          0
195              195-1            196-1            59.00      0.0130     0.81       0.57       0          0
201              201-1            1-1              47.00      0.0130     0.23       0.14       0          0
200              200-1            201-1            19.00      0.0130     0.43       0.38       0          0
198              198-1            200-1            51.00      0.0130     0.78       0.60       0          0
207              207-1            208-1            37.00      0.0130     0.06       -0.01      0          0
208              208-1            209-1            37.00      0.0130     -0.11      -0.17      0          0
204              204-1            207-1            33.00      0.0130     0.73       0.58       0          0
203              203-1            207-1            4.00       0.0130     0.42       0.41       0          0
205              205-1            207-1            7.00       0.0130     0.36       0.34       0          0
206              206-1            205-1            53.00      0.0130     0.57       0.36       0          0
210              210-1            211-1            47.00      0.0130     0.65       0.48       0          0
211              211-1            212-1            49.00      0.0130     0.38       0.26       0          0
213              213-1            3-1              4.00       0.0130     -0.00      -0.01      0          0
209              209-1            2-1              8.00       0.0130     -0.19      -0.21      0          0
1                1-1              2-1              55.00      0.0130     -3.37      -3.40      0          0
199              199-1            200-1            23.00      0.0130     0.73       0.63       0          0
218              218-1            220-1            9.00       0.0130     -0.11      -0.13      0          0
217              217-1            218-1            96.00      0.0130     0.14       -0.09      0          0
12               12-1             630              13.00      0.0130     -4.33      -4.34      0          0
270              270-1            10-1             5.00       0.0130     -0.48      -0.49      0          0
267              267-1            270-1            55.00      0.0130     -0.07      -0.17      0          0
265              265-1            266-1            43.00      0.0130     0.35       0.24       0          0
262              262-1            264-1            62.00      0.0130     0.29       0.11       0          0
263              263-1            264-1            58.00      0.0130     0.16       -0.04      0          0