;; SWMM5 .inp converted from XPSWMM .xp file
;; Generated by XPSWMM Card Reader
;; Source format: XP_CARD | Original title: Woy Woy Major SPS Catchment

[TITLE]
;;Project Title/Notes
Woy Woy Major SPS Catchment

[OPTIONS]
FLOW_UNITS           CMS
INFILTRATION         HORTON
FLOW_ROUTING         DYNWAVE
LINK_OFFSETS         DEPTH
MIN_SLOPE            0.0
ALLOW_PONDING        NO
SKIP_STEADY_STATE    NO
ROUTING_STEP         00:00:15
VARIABLE_STEP        0.75
INERTIAL_DAMPING     PARTIAL
NORMAL_FLOW_LIMITED  BOTH
MAX_TRIALS           50
HEAD_TOLERANCE       .001

[JUNCTIONS]
;;Name           Elev       MaxDepth   InitDepth  SurDepth   Aponded
;;-------------- ---------- ---------- ---------- ---------- ----------
0                101.00     0          0          0          0
0                146.93     0          0          0          0
0                145.21     0          0          0          0
0                117.58     0          0          0          0
0                115.52     0          0          0          0
0                115.00     0          0          0          0
0                111.84     0          0          0          0
0                102.33     0          0          0          0
0                101.80     0          0          0          0
0                101.43     0          0          0          0
0                101.58     0          0          0          0
0                101.41     0          0          0          0
0                101.19     0          0          0          0
0                101.69     0          0          0          0
0                101.62     0          0          0          0
0                121.46     0          0          0          0
0                119.44     0          0          0          0
0                117.74     0          0          0          0
0                115.11     0          0          0          0
0                109.88     0          0          0          0
0                101.85     0          0          0          0
0                101.11     0          0          0          0
0                107.78     0          0          0          0
0                108.17     0          0          0          0
0                107.21     0          0          0          0
0                106.83     0          0          0          0
0                106.72     0          0          0          0
0                107.90     0          0          0          0
0                106.91     0          0          0          0
0                107.02     0          0          0          0
0                106.76     0          0          0          0
0                107.07     0          0          0          0
0                106.55     0          0          0          0
0                106.92     0          0          0          0
0                106.67     0          0          0          0
0                106.37     0          0          0          0
0                105.51     0          0          0          0
0                104.60     0          0          0          0
0                105.20     0          0          0          0
0                105.05     0          0          0          0
0                104.11     0          0          0          0
0                104.07     0          0          0          0
0                103.20     0          0          0          0
0                102.86     0          0          0          0
0                102.86     0          0          0          0
0                102.74     0          0          0          0
0                102.68     0          0          0          0
0                102.82     0          0          0          0
0                105.30     0          0          0          0
0                102.47     0          0          0          0
0                102.37     0          0          0          0
0                102.19     0          0          0          0
0                102.49     0          0          0          0
0                101.77     0          0          0          0
0                103.76     0          0          0          0
0                102.49     0          0          0          0
0                102.19     0          0          0          0
0                102.34     0          0          0          0
0                102.14     0          0          0          0
0                103.93     0          0          0          0
0                101.49     0          0          0          0
0                101.72     0          0          0          0
0                101.27     0          0          0          0
0                100.95     0          0          0          0
0                120.00     0          0          0          0
0                101.65     0          0          0          0
0                101.50     0          0          0          0
0                101.32     0          0          0          0
0                101.51     0          0          0          0
0                103.61     0          0          0          0
0                101.05     0          0          0          0
0                102.91     0          0          0          0
0                101.09     0          0          0          0
0                100.84     0          0          0          0
0                105.29     0          0          0          0
0                102.21     0          0          0          0
0                103.76     0          0          0          0
0                104.83     0          0          0          0
0                105.00     0          0          0          0
0                104.79     0          0          0          0
0                104.64     0          0          0          0
0                104.59     0          0          0          0
0                104.04     0          0          0          0
0                103.78     0          0          0          0
0                102.15     0          0          0          0
0                101.44     0          0          0          0
0                101.12     0          0          0          0
0                104.92     0          0          0          0
0                102.23     0          0          0          0
0                102.20     0          0          0          0
0                101.03     0          0          0          0
0                100.98     0          0          0          0
0                101.62     0          0          0          0
0                101.52     0          0          0          0
0                105.02     0          0          0          0
0                104.65     0          0          0          0
0                104.23     0          0          0          0
0                104.21     0          0          0          0
0                102.52     0          0          0          0
0                102.73     0          0          0          0
0                102.47     0          0          0          0
0                104.28     0          0          0          0
0                104.38     0          0          0          0
0                104.58     0          0          0          0
0                104.56     0          0          0          0
0                104.04     0          0          0          0
0                104.18     0          0          0          0
0                104.16     0          0          0          0
0                104.30     0          0          0          0
0                103.97     0          0          0          0
0                103.90     0          0          0          0
0                105.24     0          0          0          0
0                105.08     0          0          0          0
0                104.43     0          0          0          0
0                104.00     0          0          0          0
0                105.71     0          0          0          0
0                105.55     0          0          0          0
0                105.13     0          0          0          0
0                105.03     0          0          0          0
0                104.81     0          0          0          0
0                104.09     0          0          0          0
0                103.86     0          0          0          0
0                103.88     0          0          0          0
0                103.89     0          0          0          0
0                103.92     0          0          0          0
0                103.95     0          0          0          0
0                104.80     0          0          0          0
0                104.66     0          0          0          0
0                105.12     0          0          0          0
0                105.11     0          0          0          0
0                104.97     0          0          0          0
0                104.62     0          0          0          0
0                104.55     0          0          0          0
0                104.97     0          0          0          0
0                105.30     0          0          0          0
0                105.65     0          0          0          0
0                104.68     0          0          0          0
0                104.31     0          0          0          0
0                104.16     0          0          0          0
0                104.05     0          0          0          0
0                104.55     0          0          0          0
0                104.26     0          0          0          0
0                104.32     0          0          0          0
0                104.33     0          0          0          0
0                104.50     0          0          0          0
0                104.10     0          0          0          0
0                104.25     0          0          0          0
0                101.39     0          0          0          0
0                102.17     0          0          0          0
0                101.44     0          0          0          0
0                102.46     0          0          0          0
0                102.35     0          0          0          0
0                101.97     0          0          0          0
0                101.57     0          0          0          0
0                101.60     0          0          0          0
0                101.95     0          0          0          0
0                102.19     0          0          0          0
0                101.77     0          0          0          0
0                103.64     0          0          0          0
0                103.35     0          0          0          0
0                103.11     0          0          0          0
0                103.67     0          0          0          0
0                101.31     0          0          0          0
0                101.44     0          0          0          0
0                101.26     0          0          0          0
0                101.27     0          0          0          0
0                101.33     0          0          0          0
0                101.03     0          0          0          0
0                101.21     0          0          0          0
0                101.21     0          0          0          0
0                101.09     0          0          0          0
0                100.95     0          0          0          0
0                100.95     0          0          0          0
0                101.27     0          0          0          0
0                101.12     0          0          0          0
0                101.37     0          0          0          0
0                101.38     0          0          0          0
0                100.95     0          0          0          0
0                100.99     0          0          0          0
0                100.91     0          0          0          0
0                101.31     0          0          0          0
0                101.97     0          0          0          0
0                104.66     0          0          0          0
0                104.76     0          0          0          0
0                104.68     0          0          0          0
0                104.93     0          0          0          0
0                104.94     0          0          0          0
0                104.60     0          0          0          0
0                104.91     0          0          0          0
0                105.01     0          0          0          0
0                104.62     0          0          0          0
0                104.95     0          0          0          0
0                102.01     0          0          0          0
0                102.05     0          0          0          0
0                103.12     0          0          0          0
0                102.84     0          0          0          0
0                102.15     0          0          0          0
0                104.29     0          0          0          0
0                102.50     0          0          0          0
0                102.82     0          0          0          0
0                101.85     0          0          0          0
0                102.08     0          0          0          0
0                104.57     0          0          0          0
0                104.48     0          0          0          0
0                104.57     0          0          0          0
0                104.60     0          0          0          0
0                104.75     0          0          0          0
0                104.69     0          0          0          0
0                104.68     0          0          0          0
0                104.56     0          0          0          0
0                104.31     0          0          0          0
0                104.29     0          0          0          0
0                104.83     0          0          0          0
0                104.51     0          0          0          0
0                104.14     0          0          0          0
0                104.69     0          0          0          0
0                100.93     0          0          0          0
0                100.94     0          0          0          0
0                100.92     0          0          0          0
0                104.34     0          0          0          0
0                102.98     0          0          0          0
0                102.60     0          0          0          0
0                101.43     0          0          0          0
0                101.03     0          0          0          0
0                101.47     0          0          0          0
0                101.04     0          0          0          0
0                103.13     0          0          0          0
0                101.18     0          0          0          0
0                101.18     0          0          0          0
0                100.90     0          0          0          0
0                103.84     0          0          0          0
0                103.92     0          0          0          0
0                103.96     0          0          0          0
0                104.27     0          0          0          0
0                104.29     0          0          0          0
0                104.44     0          0          0          0
0                104.26     0          0          0          0
0                104.62     0          0          0          0
0                104.86     0          0          0          0
0                104.39     0          0          0          0
0                104.78     0          0          0          0
0                104.37     0          0          0          0
0                104.92     0          0          0          0
0                105.26     0          0          0          0
0                105.08     0          0          0          0
0                104.89     0          0          0          0
0                103.78     0          0          0          0
0                103.59     0          0          0          0
0                103.65     0          0          0          0
0                103.62     0          0          0          0
0                104.29     0          0          0          0
0                102.75     0          0          0          0
0                103.21     0          0          0          0
0                103.04     0          0          0          0
0                103.30     0          0          0          0
0                103.56     0          0          0          0
0                103.09     0          0          0          0
0                103.09     0          0          0          0
0                102.61     0          0          0          0
0                103.85     0          0          0          0
0                103.59     0          0          0          0
0                103.45     0          0          0          0
0                103.76     0          0          0          0
0                104.83     0          0          0          0
0                104.76     0          0          0          0
0                103.75     0          0          0          0
0                105.21     0          0          0          0
0                105.00     0          0          0          0
0                103.34     0          0          0          0
0                103.91     0          0          0          0
0                104.18     0          0          0          0
0                103.99     0          0          0          0
0                103.86     0          0          0          0
0                103.99     0          0          0          0
0                103.82     0          0          0          0
0                102.51     0          0          0          0
0                103.09     0          0          0          0
0                103.33     0          0          0          0
0                102.31     0          0          0          0
0                102.52     0          0          0          0
0                103.34     0          0          0          0
0                102.93     0          0          0          0
0                102.47     0          0          0          0
0                103.15     0          0          0          0
0                103.40     0          0          0          0
0                103.16     0          0          0          0
0                103.12     0          0          0          0
0                103.45     0          0          0          0
0                104.32     0          0          0          0
0                104.30     0          0          0          0
0                102.11     0          0          0          0
0                102.11     0          0          0          0
0                101.77     0          0          0          0
0                101.81     0          0          0          0
0                101.90     0          0          0          0
0                100.96     0          0          0          0
0                101.14     0          0          0          0
0                101.46     0          0          0          0
0                102.09     0          0          0          0
0                101.84     0          0          0          0
0                110.26     0          0          0          0
0                108.97     0          0          0          0
0                115.15     0          0          0          0
0                114.58     0          0          0          0
0                103.00     0          0          0          0
0                103.31     0          0          0          0
0                103.39     0          0          0          0
0                104.12     0          0          0          0
0                104.67     0          0          0          0
0                104.22     0          0          0          0
0                104.01     0          0          0          0
0                104.57     0          0          0          0
0                103.94     0          0          0          0
0                104.54     0          0          0          0
0                104.28     0          0          0          0
0                104.05     0          0          0          0
0                105.20     0          0          0          0
0                103.77     0          0          0          0
0                104.09     0          0          0          0
0                104.02     0          0          0          0
0                101.83     0          0          0          0
0                101.17     0          0          0          0
0                101.46     0          0          0          0
0                107.84     0          0          0          0
0                106.43     0          0          0          0
0                110.33     0          0          0          0
0                111.02     0          0          0          0
0                111.25     0          0          0          0
0                113.42     0          0          0          0
0                113.71     0          0          0          0
0                111.59     0          0          0          0
0                114.47     0          0          0          0
0                103.44     0          0          0          0
0                103.95     0          0          0          0
0                103.61     0          0          0          0
0                101.48     0          0          0          0
0                101.06     0          0          0          0
0                101.05     0          0          0          0
0                120.00     0          0          0          0

[STORAGE]
;;Name           Elev       MaxDepth   InitDepth  Shape      Curve/Params
;;-------------- ---------- ---------- ---------- ---------- ----------
0                101.00     0          1.80       FUNCTIONAL 5.70 0          0
0                101.35     0          1.60       FUNCTIONAL 5.70 0          0
0                101.00     0          1.60       FUNCTIONAL 5.70 0          0
0                101.29     0          1.80       FUNCTIONAL 5.70 0          0
0                101.23     0          1.60       FUNCTIONAL 2.50 0          0
0                102.15     0          1.60       FUNCTIONAL 1.30 0          0
0                101.47     0          2.63       FUNCTIONAL 5.70 0          0
0                101.39     0          1.60       FUNCTIONAL 2.50 0          0
0                101.02     0          1.70       FUNCTIONAL 2.50 0          0
0                101.52     0          1.45       FUNCTIONAL 2.50 0          0
0                102.05     0          1.70       FUNCTIONAL 2.50 0          0
0                104.74     0          2.70       FUNCTIONAL 2.50 0          0
0                101.14     0          1.60       FUNCTIONAL 2.50 0          0
0                104.71     0          1.60       FUNCTIONAL 2.50 0          0
0                103.66     0          1.23       FUNCTIONAL 2.50 0          0
0                104.29     0          2.31       FUNCTIONAL 5.70 0          0
0                102.06     0          2.61       FUNCTIONAL 2.50 0          0
0                104.66     0          1.18       FUNCTIONAL 2.50 0          0
0                102.15     0          2.08       FUNCTIONAL 2.50 0          0

[CONDUITS]
;;Name           From             To               Length     Roughness  InOffset   OutOffset  InitFlow   MaxFlow
;;-------------- ---------------- ---------------- ---------- ---------- ---------- ---------- ---------- ----------
224              0                0                20.00      0.0130     96.75      96.72      0          0
233              0                0                23.80      0.0130     144.90     143.33     0          0
444              0                0                91.00      0.0130     143.33     116.38     0          0
446              0                0                16.20      0.0130     116.38     114.39     0          0
459              0                0                13.00      0.0130     114.39     113.97     0          0
461              0                0                8.20       0.0130     113.97     109.59     0          0
463              0                0                42.00      0.0130     109.59     100.00     0          0
465              0                0                64.10      0.0130     100.00     99.67      0          0
467              0                0                39.70      0.0130     99.67      99.50      0          0
469              0                0                49.30      0.0130     99.50      99.35      0          0
471              0                0                36.30      0.0130     99.35      99.13      0          0
473              0                0                36.50      0.0130     99.13      98.99      0          0
475              0                0                22.60      0.0130     98.99      98.96      0          0
477              0                0                32.00      0.0130     98.96      98.89      0          0
547              0                0                40.60      0.0130     120.41     117.94     0          0
549              0                0                15.70      0.0130     117.94     116.17     0          0
552              0                0                49.60      0.0130     116.17     113.79     0          0
554              0                0                15.50      0.0130     113.79     109.11     0          0
556              0                0                14.40      0.0130     109.11     99.00      0          0
560              0                0                256.30     0.0130     99.00      97.59      0          0
561              0                0                5.20       0.0140     97.59      97.57      0          0
569              0                0                63.40      0.0140     107.08     106.87     0          0
581              0                0                26.20      0.0140     106.87     106.56     0          0
583              0                0                16.50      0.0140     106.56     106.13     0          0
585              0                0                24.70      0.0140     106.13     105.87     0          0
587              0                0                86.50      0.0140     105.87     105.59     0          0
589              0                0                45.90      0.0140     105.59     105.41     0          0
591              0                0                15.20      0.0140     105.41     105.32     0          0
593              0                0                24.00      0.0140     105.32     104.36     0          0
595              0                0                33.10      0.0140     104.36     104.07     0          0
597              0                0                49.30      0.0140     104.07     104.05     0          0
599              0                0                26.80      0.0140     104.05     103.92     0          0
601              0                0                51.40      0.0140     103.92     103.67     0          0
603              0                0                33.70      0.0140     103.67     103.37     0          0
605              0                0                27.50      0.0140     103.37     103.31     0          0
607              0                0                56.30      0.0140     103.31     103.10     0          0
609              0                0                23.20      0.0140     103.10     102.90     0          0
611              0                0                23.40      0.0140     102.90     102.84     0          0
613              0                0                87.50      0.0140     102.84     102.71     0          0
615              0                0                40.90      0.0140     102.71     102.47     0          0
617              0                0                59.50      0.0140     102.47     102.30     0          0
619              0                0                17.00      0.0140     102.30     102.26     0          0
621              0                0                25.20      0.0140     102.26     102.26     0          0
623              0                0                31.40      0.0140     102.26     102.14     0          0
625              0                0                10.00      0.0140     102.14     102.08     0          0
627              0                0                45.00      0.0140     101.63     101.33     0          0
629              0                0                110.00     0.0140     101.33     101.20     0          0
631              0                0                12.50      0.0140     101.20     101.18     0          0
633              0                0                19.00      0.0140     101.18     101.08     0          0
635              0                0                31.00      0.0140     101.08     101.04     0          0
637              0                0                52.40      0.0140     101.04     100.89     0          0
639              0                0                43.50      0.0140     100.89     100.77     0          0
641              0                0                14.50      0.0140     100.77     100.76     0          0
643              0                0                47.90      0.0140     100.76     100.60     0          0
645              0                0                8.30       0.0140     100.60     100.53     0          0