;; SWMM5 .inp converted from XPSWMM .xp file
;; Generated by XPSWMM Card Reader
;; Source format: XP_CARD | Original title: City of Lancaster CSO Study

[TITLE]
;;Project Title/Notes
City of Lancaster CSO Study

[OPTIONS]
FLOW_UNITS           CFS
INFILTRATION         HORTON
FLOW_ROUTING         DYNWAVE
LINK_OFFSETS         DEPTH
MIN_SLOPE            0.0
ALLOW_PONDING        NO
SKIP_STEADY_STATE    NO
ROUTING_STEP         00:00:10
VARIABLE_STEP        0.75
INERTIAL_DAMPING     PARTIAL
NORMAL_FLOW_LIMITED  BOTH

[JUNCTIONS]
;;Name           Elev       MaxDepth   InitDepth  SurDepth   Aponded
;;-------------- ---------- ---------- ---------- ---------- ----------
14               813.00     0          0          0          0
15               813.00     0          0          0          0
18               816.50     0          0          0          0
20               814.00     0          0          0          0
22               818.00     0          0          0          0
24               818.50     0          0          0          0
29               815.00     0          0          0          0
31               816.50     0          0          0          0
33               814.64     0          0          0          0
36               819.00     0          0          0          0
38               822.00     0          0          0          0
40               832.50     0          0          0          0
42               836.00     0          0          0          0
44               825.50     0          0          0          0
46               831.00     0          0          0          0
48               834.00     0          0          0          0
50               839.50     0          0          0          0
52               840.00     0          0          0          0
54               843.89     0          0          0          0
56               844.70     0          0          0          0
58               848.50     0          0          0          0
60               867.50     0          0          0          0
64               857.00     0          0          0          0
66               859.50     0          0          0          0
68               872.50     0          0          0          0
70               873.00     0          0          0          0
72               892.50     0          0          0          0
74               887.80     0          0          0          0
76               894.00     0          0          0          0
78               897.00     0          0          0          0
80               900.50     0          0          0          0
95               819.00     0          0          0          0
97               820.00     0          0          0          0
99               835.00     0          0          0          0
101              827.00     0          0          0          0
103              827.50     0          0          0          0
110              828.50     0          0          0          0
111              827.00     0          0          0          0
116              832.00     0          0          0          0
118              835.00     0          0          0          0
120              842.00     0          0          0          0
123              818.10     0          0          0          0
125              818.00     0          0          0          0
126              817.50     0          0          0          0
129              823.00     0          0          0          0
131              828.50     0          0          0          0
133              813.00     0          0          0          0
135              817.70     0          0          0          0
136              815.00     0          0          0          0
141              815.30     0          0          0          0
142              814.24     0          0          0          0
145              815.00     0          0          0          0
149              818.27     0          0          0          0
150              815.18     0          0          0          0
153              831.00     0          0          0          0
155              828.75     0          0          0          0
157              833.00     0          0          0          0
159              816.60     0          0          0          0
164              806.00     0          0          0          0
170              816.58     0          0          0          0
173              835.00     0          0          0          0
174              833.60     0          0          0          0
176              838.88     0          0          0          0
179              836.32     0          0          0          0
181              810.00     0          0          0          0
183              820.12     0          0          0          0
185              830.00     0          0          0          0
187              831.00     0          0          0          0
189              838.00     0          0          0          0
191              828.00     0          0          0          0
193              836.00     0          0          0          0
196              835.00     0          0          0          0
198              836.00     0          0          0          0
200              837.00     0          0          0          0
203              850.10     0          0          0          0
204              840.00     0          0          0          0
206              839.00     0          0          0          0
209              836.00     0          0          0          0
210              835.00     0          0          0          0
212              833.00     0          0          0          0
215              841.00     0          0          0          0
217              846.00     0          0          0          0
219              827.00     0          0          0          0
220              825.10     0          0          0          0
222              821.00     0          0          0          0
225              840.00     0          0          0          0
226              827.70     0          0          0          0
229              835.00     0          0          0          0
230              831.00     0          0          0          0
232              828.50     0          0          0          0
234              829.00     0          0          0          0
237              826.69     0          0          0          0
240              835.00     0          0          0          0
242              846.00     0          0          0          0
243              841.00     0          0          0          0
252              828.00     0          0          0          0
253              831.50     0          0          0          0
256              830.00     0          0          0          0
258              834.20     0          0          0          0
259              838.80     0          0          0          0
261              834.00     0          0          0          0
263              829.50     0          0          0          0
266              838.80     0          0          0          0
268              840.00     0          0          0          0
269              832.00     0          0          0          0
272              831.32     0          0          0          0
274              836.50     0          0          0          0
276              872.60     0          0          0          0
277              857.80     0          0          0          0
279              837.00     0          0          0          0
282              834.00     0          0          0          0
285              833.32     0          0          0          0
286              832.77     0          0          0          0
289              826.50     0          0          0          0
292              832.00     0          0          0          0
294              826.00     0          0          0          0
296              823.00     0          0          0          0
304              834.00     0          0          0          0
305              832.00     0          0          0          0
308              820.00     0          0          0          0
310              807.50     0          0          0          0
312              807.00     0          0          0          0
315              815.84     0          0          0          0
316              816.91     0          0          0          0
318              811.11     0          0          0          0
322              812.50     0          0          0          0
323              810.70     0          0          0          0
330              808.00     0          0          0          0
350              829.00     0          0          0          0
352              816.50     0          0          0          0
354              810.00     0          0          0          0
359              808.50     0          0          0          0
361              811.00     0          0          0          0
362              816.00     0          0          0          0
365              807.00     0          0          0          0
370              811.84     0          0          0          0
372              811.85     0          0          0          0
375              811.83     0          0          0          0
381              812.10     0          0          0          0
383              812.00     0          0          0          0
387              810.00     0          0          0          0
390              808.00     0          0          0          0
392              823.00     0          0          0          0
396              836.50     0          0          0          0
398              857.70     0          0          0          0
400              849.30     0          0          0          0
402              834.90     0          0          0          0
404              815.00     0          0          0          0
408              812.00     0          0          0          0
410              812.00     0          0          0          0
415              832.10     0          0          0          0
418              844.00     0          0          0          0
420              835.00     0          0          0          0
422              838.00     0          0          0          0
425              839.00     0          0          0          0
427              835.00     0          0          0          0
429              826.00     0          0          0          0
431              831.00     0          0          0          0
433              831.00     0          0          0          0
435              830.00     0          0          0          0
437              830.00     0          0          0          0
439              829.50     0          0          0          0
442              831.00     0          0          0          0
444              830.00     0          0          0          0
448              819.00     0          0          0          0
451              818.50     0          0          0          0
453              818.00     0          0          0          0
455              816.00     0          0          0          0
457              814.00     0          0          0          0
459              812.00     0          0          0          0
462              815.00     0          0          0          0
464              816.00     0          0          0          0
466              818.00     0          0          0          0
468              820.00     0          0          0          0
470              828.00     0          0          0          0
473              828.30     0          0          0          0
475              818.00     0          0          0          0
478              817.00     0          0          0          0
479              815.50     0          0          0          0
482              814.00     0          0          0          0
484              812.00     0          0          0          0
485              811.50     0          0          0          0
488              839.00     0          0          0          0
490              835.00     0          0          0          0
492              835.10     0          0          0          0
495              836.00     0          0          0          0
497              834.50     0          0          0          0
499              837.00     0          0          0          0
501              836.00     0          0          0          0
503              828.00     0          0          0          0
505              827.10     0          0          0          0
508              829.00     0          0          0          0
510              828.00     0          0          0          0
512              833.00     0          0          0          0
514              895.00     0          0          0          0
516              873.00     0          0          0          0
518              876.00     0          0          0          0
519              874.50     0          0          0          0
522              878.00     0          0          0          0
524              898.00     0          0          0          0
526              902.00     0          0          0          0
528              902.00     0          0          0          0
530              868.50     0          0          0          0
533              870.00     0          0          0          0
535              868.00     0          0          0          0
537              873.00     0          0          0          0
540              874.00     0          0          0          0
542              876.00     0          0          0          0
544              833.62     0          0          0          0
546              835.00     0          0          0          0
548              830.00     0          0          0          0
551              831.00     0          0          0          0
553              835.00     0          0          0          0
555              835.00     0          0          0          0
558              835.50     0          0          0          0
560              836.00     0          0          0          0
563              837.00     0          0          0          0
565              842.00     0          0          0          0
567              832.50     0          0          0          0
570              833.00     0          0          0          0
572              834.00     0          0          0          0
573              834.50     0          0          0          0
576              839.00     0          0          0          0
578              843.00     0          0          0          0
581              844.00     0          0          0          0
583              844.00     0          0          0          0
585              838.70     0          0          0          0
588              838.00     0          0          0          0
590              834.50     0          0          0          0
593              835.00     0          0          0          0
595              830.00     0          0          0          0
598              831.00     0          0          0          0
600              833.00     0          0          0          0
602              826.00     0          0          0          0
604              828.00     0          0          0          0
606              825.00     0          0          0          0
609              826.00     0          0          0          0
613              825.00     0          0          0          0
616              824.00     0          0          0          0
618              826.00     0          0          0          0
620              822.00     0          0          0          0
623              821.00     0          0          0          0
625              821.00     0          0          0          0
627              820.50     0          0          0          0
630              822.00     0          0          0          0
632              820.00     0          0          0          0
634              821.00     0          0          0          0
636              817.00     0          0          0          0
638              824.00     0          0          0          0
641              825.00     0          0          0          0
643              825.00     0          0          0          0
645              831.10     0          0          0          0
648              831.00     0          0          0          0
650              831.00     0          0          0          0
653              832.00     0          0          0          0
655              830.00     0          0          0          0
657              833.00     0          0          0          0
659              832.70     0          0          0          0
661              831.76     0          0          0          0
664              834.00     0          0          0          0
666              832.00     0          0          0          0
668              832.00     0          0          0          0
670              831.00     0          0          0          0
672              831.00     0          0          0          0
675              833.00     0          0          0          0
677              829.00     0          0          0          0
679              830.00     0          0          0          0
681              829.00     0          0          0          0

[CONDUITS]
;;Name           From             To               Length     Roughness  InOffset   OutOffset  InitFlow   MaxFlow
;;-------------- ---------------- ---------------- ---------- ---------- ---------- ---------- ---------- ----------
16               14               15               310.00     0.0140     800.83     800.64     0          0
19               18               14               120.00     0.0140     800.89     800.83     0          0
21               20               18               130.00     0.0140     801.27     800.89     0          0
23               22               18               40.00      0.0140     803.63     803.55     0          0
25               24               22               80.00      0.0140     805.10     803.65     0          0
32               31               29               210.00     0.0140     801.86     801.75     0          0
34               29               33               610.00     0.0140     801.75     801.36     0          0
35               33               20               290.00     0.0140     801.36     801.27     0          0
37               36               31               1180.00    0.0140     804.36     801.86     0          0
Fetters          38               36               1820.00    0.0140     811.97     804.46     0          0
41               40               38               1800.00    0.0140     818.50     811.97     0          0
47               46               44               1910.00    0.0140     818.68     810.95     0          0
49               48               46               320.00     0.0140     821.00     819.56     0          0
53               52               50               515.00     0.0140     828.36     826.05     0          0
55               54               52               200.00     0.0140     833.09     829.40     0          0
57               56               52               1050.00    0.0140     833.42     828.36     0          0
59               58               56               60.00      0.0140     841.50     833.42     0          0
61               60               56               5600.00    0.0140     853.41     833.42     0          0
67               66               64               1060.00    0.0140     847.30     843.44     0          0
69               68               66               1500.00    0.0140     856.62     847.30     0          0
73               72               70               1520.00    0.0140     879.42     864.03     0          0
75               74               70               2610.00    0.0140     872.92     862.00     0          0
77               76               74               1170.00    0.0140     879.65     873.92     0          0
79               78               76               300.00     0.0140     881.48     879.65     0          0
81               80               78               660.00     0.0140     885.69     881.48     0          0
08               012              018              130.00     0.0140     808.75     805.10     0          0
98               97               95               180.00     0.0140     810.48     808.50     0          0
100              99               97               5340.00    0.0140     825.30     810.48     0          0
104              103              101              530.00     0.0140     812.30     811.50     0          0
113              111              103              460.00     0.0140     813.52     812.30     0          0
117              116              110              1640.00    0.0140     819.50     817.00     0          0
119              118              116              1630.00    0.0140     824.24     819.50     0          0
121              120              118              3840.00    0.0140     830.22     824.24     0          0
65               64               42               3900.00    0.0140     843.44     825.75     0          0
124              123              22               50.00      0.0140     803.65     803.63     0          0
127              125              126              40.00      0.0140     803.90     804.00     0          0
128              126              123              90.00      0.0140     804.00     803.65     0          0
130              129              125              945.00     0.0140     807.90     803.90     0          0
132              131              129              380.00     0.0140     821.47     812.56     0          0
134              133              33               390.00     0.0140     805.95     801.63     0          0
137              135              136              490.00     0.0140     809.70     806.81     0          0
138              136              133              300.00     0.0140     806.81     805.99     0          0
143              141              142              450.00     0.0140     807.02     804.64     0          0
144              142              125              180.00     0.0140     804.64     803.90     0          0
146              141              145              30.00      0.0140     807.50     807.00     0          0
151              149              150              250.00     0.0140     811.38     808.50     0          0
152              150              141              200.00     0.0140     808.20     807.02     0          0
154              153              149              240.00     0.0140     818.00     812.68     0          0
158              157              155              450.00     0.0140     823.25     819.00     0          0
160              159              31               40.00      0.0140     807.30     802.90     0          0
165              125              164              100.00     0.0140     805.10     800.50     0          0
172              170              159              50.00      0.0140     807.30     807.20     0          0
175              173              174              1050.00    0.0140     830.50     828.24     0          0
177              174              176              980.00     0.0140     828.24     827.63     0          0
178              176              170              1350.00    0.0140     827.63     809.80     0          0
182              170              181              100.00     0.0140     809.00     805.00     0          0
186              185              183              1760.00    0.0140     813.00     811.39     0          0
188              187              38               100.00     0.0140     818.20     812.00     0          0
190              189              187              500.00     0.0140     820.86     818.20     0          0
192              187              191              40.00      0.0140     818.00     815.00     0          0
197              193              196              33.00      0.0140     827.84     826.93     0          0
199              196              198              200.00     0.0140     826.93     826.16     0          0
201              198              200              420.00     0.0140     826.16     824.44     0          0
202              200              189              33.00      0.0140     824.44     823.03     0          0
207              204              206              490.00     0.0140     832.45     830.95     0          0
208              206              189              880.00     0.0140     822.75     820.86     0          0
211              209              210              50.00      0.0140     830.24     829.84     0          0
213              210              212              490.00     0.0140     829.84     825.23     0          0
214              212              206              880.00     0.0140     825.23     822.75     0          0
216              215              209              220.00     0.0140     830.99     830.24     0          0
218              217              215              230.00     0.0140     833.26     830.99     0          0
224              222              129              1450.00    0.0140     812.02     807.90     0          0
233              230              232              400.00     0.0140     819.90     818.48     0          0
235              232              234              40.00      0.0140     818.88     818.37     0          0
236              234              219              80.00      0.0140     818.37     817.34     0          0
238              237              232              400.00     0.0140     819.96     818.48     0          0
239              237              230              20.00      0.0140     819.96     819.90     0          0
241              240              230              370.00     0.0140     824.20     819.90     0          0
244              242              243              230.00     0.0140     833.48     830.99     0          0
245              243              229              250.00     0.0140     830.99     829.99     0          0
247              242              217              20.00      0.0140     833.28     833.26     0          0
248              243              215              20.00      0.0140     832.10     832.07     0          0
249              209              229              50.00      0.0140     830.24     829.15     0          0
250              229              210              30.00      0.0140     828.65     828.55     0          0
251              232              219              70.00      0.0140     818.45     817.54     0          0
254              252              253              230.00     0.0140     818.60     817.90     0          0
255              253              219              280.00     0.0140     817.90     816.80     0          0
257              256              252              230.00     0.0140     819.50     818.80     0          0
260              258              259              470.00     0.0140     825.50     823.90     0          0
265              263              252              450.00     0.0140     819.10     818.60     0          0
267              266              263              460.00     0.0140     831.00     820.60     0          0
270              268              269              1150.00    0.0140     832.17     828.40     0          0
271              269              261              300.00     0.0140     828.40     825.65     0          0
275              274              258              100.00     0.0140     828.30     825.65     0          0
280              277              279              1360.00    0.0140     849.90     828.50     0          0
283              279              282              160.00     0.0140     828.50     828.05     0          0
287              285              286              160.00     0.0140     828.43     827.72     0          0
288              286              279              260.00     0.0140     828.72     828.50     0          0
290              219              289              33.00      0.0140     816.80     815.50     0          0
293              253              292              220.00     0.0140     818.80     817.96     0          0
295              292              294              910.00     0.0140     817.96     814.50     0          0
297              294              296              33.00      0.0140     814.50     812.93     0          0
306              304              305              220.00     0.0140     827.84     826.94     0          0
313              310              312              50.00      0.0140     802.50     800.00     0          0
317              315              316              160.00     0.0140     808.80     808.00     0          0
319              316              318              500.00     0.0140     808.00     804.40     0          0
324              322              323              580.00     0.0140     808.86     805.80     0          0
325              323              318              510.00     0.0140     805.50     804.40     0          0
331              318              330              800.00     0.0140     804.40     801.54     0          0
353              352              330              380.00     0.0140     800.10     799.94     0          0
355              330              354              400.00     0.0140     799.78     799.77     0          0
363              361              362              340.00     0.0140     800.28     800.20     0          0
364              362              352              45.00      0.0140     800.20     800.10     0          0