;; SWMM5 .inp converted from XPSWMM .xp file
;; Generated by XPSWMM Card Reader
;; Source format: XP_CARD | Original title: EAST HAGGINWOOD CREEK DRAINAGE STUDY - DEWANTE AND STOWELL ENGRS

[TITLE]
;;Project Title/Notes
EAST HAGGINWOOD CREEK DRAINAGE STUDY - DEWANTE AND STOWELL ENGRS

[OPTIONS]
FLOW_UNITS           CFS
INFILTRATION         HORTON
FLOW_ROUTING         DYNWAVE
LINK_OFFSETS         DEPTH
MIN_SLOPE            0.0
ALLOW_PONDING        NO
SKIP_STEADY_STATE    NO
ROUTING_STEP         00:00:30
VARIABLE_STEP        0.75
INERTIAL_DAMPING     PARTIAL
NORMAL_FLOW_LIMITED  BOTH
MAX_TRIALS           50

[JUNCTIONS]
;;Name           Elev       MaxDepth   InitDepth  SurDepth   Aponded
;;-------------- ---------- ---------- ---------- ---------- ----------
2133             0          0          0          0          0
163              0          0          0          0          0
DUMMY2           0          0          0          0          0
169              0          0          0          0          0
5137             45.10      0          0          0          0
DUMMY4           0          0          0          0          0
5135             50.00      0          0          0          0
DUMMY5           0          0          0          0          0
DUMMY6           0          0          0          0          0
5141             48.30      0          0          0          0
106              0          0          0          0          0
DUMMY8           0          0          0          0          0
113              0          0          0          0          0
DUMMY10          0          0          0          0          0
5007             70.60      0          0          0          0
5011             66.70      0          0          0          0
DUMMY11          0          0          0          0          0
5067             63.20      0          0          0          0
5902             71.50      0          0          0          0
DUMMY12          0          0          0          0          0
DUMMY13          0          0          0          0          0
DUMMY14          0          0          0          0          0
1013             0          0          0          0          0
DUMMY16          0          0          0          0          0
1012             0          0          0          0          0
DUMMY18          0          0          0          0          0
DUMMY19          0          0          0          0          0
1011             0          0          0          0          0
DUMMY21          0          0          0          0          0
DUMMY22          0          0          0          0          0
DUMMY23          0          0          0          0          0
104              0          0          0          0          0
DUMMY25          0          0          0          0          0
1052             0          0          0          0          0
DUMMY27          0          0          0          0          0
DUMMY28          0          0          0          0          0
1032             0          0          0          0          0
DUMMY30          0          0          0          0          0
DUMMY31          0          0          0          0          0
1022             0          0          0          0          0
DUMMY33          0          0          0          0          0
DUMMY34          0          0          0          0          0
5082             57.90      0          0          0          0
DUMMY35          0          0          0          0          0
136              0          0          0          0          0
135              0          0          0          0          0
DUMMY38          0          0          0          0          0
134              0          0          0          0          0
DUMMY40          0          0          0          0          0
128              0          0          0          0          0
127              0          0          0          0          0
125              0          0          0          0          0
129              0          0          0          0          0
1241             0          0          0          0          0
123              0          0          0          0          0
DUMMY47          0          0          0          0          0
121              0          0          0          0          0
5065             64.40      0          0          0          0
DUMMY49          0          0          0          0          0
1103             0          0          0          0          0
DUMMY51          0          0          0          0          0
DUMMY52          0          0          0          0          0
1102             0          0          0          0          0
5926             54.00      0          0          0          0
DUMMY54          0          0          0          0          0
5118             53.20      0          0          0          0
DUMMY55          0          0          0          0          0
DUMMY56          0          0          0          0          0
147              0          0          0          0          0
DUMMY58          0          0          0          0          0
DUMMY59          0          0          0          0          0
160              0          0          0          0          0
1741             0          0          0          0          0
170              0          0          0          0          0
162              0          0          0          0          0
DUMMY64          0          0          0          0          0
1202             0          0          0          0          0
119              0          0          0          0          0
DUMMY67          0          0          0          0          0
DUMMY68          0          0          0          0          0
1051             0          0          0          0          0
1031             0          0          0          0          0
1033             0          0          0          0          0
1021             0          0          0          0          0
1762             0          0          0          0          0
124              0          0          0          0          0
1761             0          0          0          0          0
148              0          0          0          0          0
142              0          0          0          0          0
5010             68.20      0          0          0          0
5063             66.40      0          0          0          0
5066             65.00      0          0          0          0
5062             69.40      0          0          0          0
5064             65.30      0          0          0          0
5018             62.10      0          0          0          0
5019             59.00      0          0          0          0
5907             56.00      0          0          0          0
5022             65.50      0          0          0          0
5023             55.20      0          0          0          0
5908             52.60      0          0          0          0
5090             51.30      0          0          0          0
5026             52.80      0          0          0          0
5093             51.00      0          0          0          0
5094             50.00      0          0          0          0
5098             50.00      0          0          0          0
5119             51.00      0          0          0          0
5120             49.20      0          0          0          0
5028             52.50      0          0          0          0
5027             52.90      0          0          0          0
5101             48.50      0          0          0          0
5030             55.00      0          0          0          0
5031             50.00      0          0          0          0
5130             50.00      0          0          0          0
5131             50.00      0          0          0          0
5147             48.00      0          0          0          0
5038             45.00      0          0          0          0
5039             45.00      0          0          0          0
5035             50.00      0          0          0          0
5034             55.00      0          0          0          0
5029             48.40      0          0          0          0
5132             50.00      0          0          0          0
5136             47.00      0          0          0          0
5138             45.20      0          0          0          0
5139             45.10      0          0          0          0
5140             45.10      0          0          0          0
5144             49.00      0          0          0          0
5149             48.00      0          0          0          0
5008             70.40      0          0          0          0
5009             69.50      0          0          0          0
5017             68.30      0          0          0          0
5021             55.30      0          0          0          0
5061             71.30      0          0          0          0
5945             69.60      0          0          0          0
5060             69.00      0          0          0          0
5946             71.00      0          0          0          0
5099             50.00      0          0          0          0
5910             49.60      0          0          0          0
5944             50.00      0          0          0          0
5092             51.00      0          0          0          0
5091             51.30      0          0          0          0
5024             52.60      0          0          0          0
5025             52.60      0          0          0          0
5953             54.72      0          0          0          0
5951             56.00      0          0          0          0
5020             56.05      0          0          0          0
5952             56.00      0          0          0          0
5113             49.40      0          0          0          0
5112             51.20      0          0          0          0
5111             52.27      0          0          0          0

[STORAGE]
;;Name           Elev       MaxDepth   InitDepth  Shape      Curve/Params
;;-------------- ---------- ---------- ---------- ---------- ----------
5146             48.00      0          0          FUNCTIONAL 0 0          0
5037             50.00      0          0          FUNCTIONAL 100.00 0          0
5148             48.00      0          0          FUNCTIONAL 0 0          0

[CONDUITS]
;;Name           From             To               Length     Roughness  InOffset   OutOffset  InitFlow   MaxFlow
;;-------------- ---------------- ---------------- ---------- ---------- ---------- ---------- ---------- ----------
2972             160              163              110.00     0.0250     0          0          0          0
2973             163              DUMMY2           90.00      0.0300     0          0          0          0
2974             DUMMY2           169              40.00      0.0250     0          0          0          0
2975             169              5137             420.00     0.0300     0          0          0          0
2977             1741             DUMMY4           1900.00    0.0250     0          0          0          0
2971             DUMMY4           5135             100.00     0.0300     0          0          0          0
2976             170              5137             1650.00    0.0300     0          0          0          0
2959             162              DUMMY5           370.00     0.0250     0          0          0          0
2960             DUMMY5           DUMMY6           455.00     0.0250     0          0          0          0
2982             DUMMY6           5141             480.00     0.0300     0          0          0          0
2001             DUMMY64          106              280.00     0.0200     0          0          0          0
2002             106              DUMMY8           317.00     0.0250     0          0          0          0
2003             DUMMY8           113              244.00     0.0150     0          0          0          0
2004             113              DUMMY10          240.00     0.0150     0          0          0          0
2005             DUMMY10          5007             600.00     0.0150     0          0          0          0
2012             1202             5011             320.00     0.0250     0          0          0          0
2965             ?                ?                110.00     0.0250     0          0          0          0
2966             DUMMY11          5067             190.00     0.0250     0          0          0          0
2932             DUMMY12          5902             90.00      0.0230     0          0          0          0
2931             DUMMY13          DUMMY12          10.00      0.0560     0          0          0          0
2930             DUMMY14          DUMMY13          100.00     0.0190     0          0          0          0
2045             1013             DUMMY14          600.00     0.0150     0          0          0          0
2044             DUMMY16          1013             50.00      0.0200     0          0          0          0
2043             1012             DUMMY16          360.00     0.0150     0          0          0          0
2042             DUMMY18          1012             270.00     0.0150     0          0          0          0
2908             DUMMY19          DUMMY18          100.00     0.0280     0          0          0          0
2041             1011             DUMMY19          420.00     0.0280     0          0          0          0
2909             DUMMY21          1011             100.00     0.0280     0          0          0          0
2040             DUMMY22          DUMMY21          275.00     0.0280     0          0          0          0
2943             DUMMY67          DUMMY22          675.00     0.0280     0          0          0          0
2053             DUMMY23          DUMMY13          230.00     0.0280     0          0          0          0
2052             104              DUMMY23          360.00     0.0250     0          0          0          0
2051             DUMMY25          104              150.00     0.0250     0          0          0          0
2050             DUMMY68          DUMMY25          256.00     0.0200     0          0          0          0
2945             1051             1052             880.00     0.0250     0          0          0          0
2946             1052             DUMMY27          345.00     0.0150     0          0          0          0
2949             DUMMY27          DUMMY23          155.00     0.0250     0          0          0          0
2985             DUMMY28          DUMMY13          485.00     0.0260     0          0          0          0
2048             1032             DUMMY28          455.00     0.0260     0          0          0          0
2984             DUMMY31          1032             165.00     0.0260     0          0          0          0
2978             DUMMY30          1032             410.00     0.0260     0          0          0          0
2979             1031             DUMMY30          410.00     0.0260     0          0          0          0
2980             1033             DUMMY31          100.00     0.0260     0          0          0          0
2936             1022             DUMMY13          460.00     0.0250     0          0          0          0
2942             1021             1022             535.00     0.0250     0          0          0          0
2933             1762             DUMMY33          470.00     0.0250     0          0          0          0
2934             DUMMY33          DUMMY34          280.00     0.0260     0          0          0          0
2935             DUMMY34          DUMMY13          175.00     0.0260     0          0          0          0
2082             DUMMY35          5082             80.00      0.0260     0          0          0          0
2081             136              DUMMY35          170.00     0.0400     0          0          0          0
2987             135              136              805.00     0.0150     0          0          0          0
2080             DUMMY38          135              44.00      0.0125     0          0          0          0
2079             134              DUMMY38          378.00     0.0150     0          0          0          0
2078             DUMMY40          134              42.00      0.0125     0          0          0          0
2077             128              DUMMY40          214.00     0.0150     0          0          0          0
2076             127              128              42.00      0.0125     0          0          0          0
2075             125              127              285.00     0.0150     0          0          0          0
2074             129              125              578.00     0.0150     0          0          0          0
2073             1241             129              48.00      0.0200     0          0          0          0
2072             123              1241             208.00     0.0150     0          0          0          0
2071             DUMMY47          123              44.00      0.0200     0          0          0          0
2070             121              DUMMY47          754.00     0.0150     0          0          0          0
2939             124              121              45.00      0.0200     0          0          0          0
2063             DUMMY49          5065             635.00     0.0250     0          0          0          0
2062             1103             DUMMY49          200.00     0.0300     0          0          0          0
2061             DUMMY51          1103             420.00     0.0400     0          0          0          0
2906             DUMMY52          DUMMY51          40.00      0.0370     0          0          0          0
2060             1102             DUMMY52          420.00     0.0400     0          0          0          0
2907             1761             1102             375.00     0.0400     0          0          0          0
2970             DUMMY54          5926             45.47      0.0150     0          0          0          0
2981             148              DUMMY54          47.22      0.0150     0          0          0          0
2105             DUMMY55          5118             150.00     0.0250     0          0          0          0
2104             DUMMY56          DUMMY55          160.00     0.0250     0          0          0          0
2103             147              DUMMY56          245.00     0.0250     0          0          0          0
2102             DUMMY58          147              240.00     0.0250     0          0          0          0
2101             142              DUMMY58          230.00     0.0250     0          0          0          0
20371            5037             5038             1185.00    0.0172     27.45      26.05      0          0
20372            5037             5039             1185.00    0.0172     27.45      26.05      0          0
2995             5035             5037             371.00     0.0360     28.72      28.35      0          0
2033             5034             5035             1029.92    0.0180     29.75      28.72      0          0
2994             5030             5034             589.00     0.0300     30.33      29.75      0          0
2028             5029             5030             665.00     0.0302     31.30      30.33      0          0
2029             5030             5031             322.00     0.0332     38.00      41.74      0          0
2120             5031             5130             490.00     0.0197     41.74      41.50      0          0
2121             5130             5131             380.00     0.0211     41.50      41.30      0          0
21221            21223            5132             250.00     0.0207     41.30      41.17      0          0
21231            21232            5135             188.00     0.0071     41.17      41.00      0          0
2125             5135             5136             535.00     0.2400     42.50      40.00      0          0
2126             5136             5137             190.00     0.1000     40.00      38.00      0          0
2127             5137             5138             220.00     0.0108     38.00      37.90      0          0
2128             5138             5139             220.00     0.0426     37.90      37.80      0          0
2129             5139             5140             220.00     0.0102     37.80      37.75      0          0
2130             5140             5141             180.00     0.0707     37.75      37.50      0          0
2131             5141             5037             200.00     0.0178     37.50      37.45      0          0
21331            5037             5144             100.00     0.0327     42.00      40.55      0          0
2133             5144             5146             260.00     0.0500     40.55      37.59      0          0
21341            21342            5147             220.00     0.0193     37.59      37.48      0          0
2135             5147             5148             875.00     0.0500     37.48      34.37      0          0
2136             5148             5149             260.00     0.0121     34.37      34.11      0          0
2006             5007             5008             210.00     0.0150     57.99      56.70      0          0
2007             5008             5009             565.00     0.0150     56.70      53.60      0          0
2008             5009             5010             470.00     0.0150     53.60      50.90      0          0
2009             5010             5011             340.00     0.0150     50.90      50.00      0          0
2010             5011             5017             700.00     0.0150     50.00      48.05      0          0
2018             5017             5018             982.00     0.0150     45.53      43.50      0          0
2019             5018             5019             885.00     0.0150     43.50      41.50      0          0
2020             5019             5021             382.00     0.0150     41.50      40.78      0          0
2902             5021             5907             80.00      0.0150     39.78      39.75      0          0
2021             5907             5023             569.00     0.0150     39.75      39.13      0          0
2024             5023             5026             1279.00    0.0150     39.13      36.41      0          0
2025             5026             5027             708.00     0.0150     36.41      33.93      0          0
2026             5027             5028             375.00     0.0150     33.93      32.63      0          0
2027             5028             5029             430.00     0.0150     32.63      31.30      0          0
2996             5067             5017             820.00     0.0150     46.17      45.53      0          0
2067             5066             5067             660.00     0.0150     47.20      46.17      0          0
2066             5065             5066             655.00     0.0150     48.13      47.20      0          0
2059             5064             5065             310.00     0.0150     49.11      48.63      0          0
2058             5063             5064             328.00     0.0150     49.69      49.11      0          0
2057             5062             5063             432.00     0.0150     50.77      50.19      0          0
2056             5061             5062             336.00     0.0150     51.23      50.77      0          0
2055             5945             5061             385.00     0.0150     52.50      51.23      0          0
2988             5060             5945             32.00      0.0300     64.00      56.95      0          0
2989             5946             5060             17.00      0.0150     66.01      64.00      0          0
2054             5902             5946             526.00     0.0150     67.74      66.01      0          0
2100             5099             5910             200.00     0.0250     44.10      38.00      0          0
2992             5101             5029             538.00     0.0150     34.07      33.00      0          0
2993             5910             5101             466.00     0.0150     35.18      34.07      0          0
2990             5944             5099             150.00     0.0180     44.15      44.10      0          0
2099             5098             5944             360.00     0.0250     44.87      44.15      0          0
2095             5094             5098             701.00     0.0250     45.69      44.87      0          0
2094             5093             5094             510.00     0.0150     46.76      45.69      0          0
2093             5092             5093             280.00     0.0150     47.18      46.76      0          0
2092             5091             5092             130.00     0.0150     47.56      47.18      0          0
2091             5090             5091             125.00     0.0200     48.16      47.56      0          0
2090             5908             5090             360.00     0.0150     49.20      48.16      0          0
2937             5024             5908             120.00     0.0104     49.36      49.20      0          0
2023             5022             5024             670.00     0.0150     50.11      49.36      0          0
2903             5024             5025             125.00     0.0250     49.36      48.86      0          0
2904             5025             5091             330.00     0.0250     48.86      47.56      0          0
2022             5953             5022             650.00     0.0050     51.72      50.11      0          0
2938             5951             5021             38.00      0.0470     48.80      42.75      0          0
2991             5020             5952             10.00      0.0200     51.55      51.00      0          0
2083             5082             5020             235.00     0.0400     52.69      51.55      0          0
2112             5120             5910             323.00     0.0150     38.03      37.10      0          0
2111             5113             5120             392.00     0.0150     38.90      38.03      0          0
2110             5112             5113             250.00     0.0150     41.15      40.35      0          0
2109             5111             5112             295.00     0.0150     42.45      41.40      0          0
2944             5926             5111             395.00     0.0150     44.56      42.45      0          0
2107             5119             5113             470.00     0.0250     42.09      40.40      0          0
2106             5118             5119             365.00     0.0250     43.47      42.09      0          0

[WEIRS]
;;Name           From             To               Type       CrestHt    Qcoeff     Gated    EndCon   EndCoeff   Surcharge
;;-------------- ---------------- ---------------- ---------- ---------- ---------- -------- -------- ---------- ----------
2132             DUMMY59          2133             TRANSVERSE 0          1.840      NO       0        0          YES
MUL4             5020             5951             V-NOTCH    51.70      1.840      NO       0        0          YES
MUL5             5952             5953             TRANSVERSE 51.74      1.840      NO       0        0          YES

[XSECTIONS]
;;Link           Shape        Geom1      Geom2      Geom3      Geom4      Barrels
;;-------------- ------------ ---------- ---------- ---------- ---------- ----------
2972             CIRCULAR     2.00       0          0          0          1
2973             TRAPEZOIDAL  2.00       2.00       0          0          1
2974             CIRCULAR     2.00       0          0          0          1
2975             TRAPEZOIDAL  2.00       4.00       0          0          1
2977             TRAPEZOIDAL  4.00       4.00       0          0          1
2971             CIRCULAR     2.00       0          0          0          1
2976             TRAPEZOIDAL  2.00       4.00       0          0          1
2959             CIRCULAR     2.00       0          0          0          1
2960             CIRCULAR     2.50       0          0          0          1
2982             TRAPEZOIDAL  1.50       6.00       0          0          1
2001             TRAPEZOIDAL  2.00       1.00       0          0          1
2002             CIRCULAR     2.00       0          0          0          1
2003             CIRCULAR     2.00       0          0          0          1
2004             CIRCULAR     2.00       0          0          0          1
2005             CIRCULAR     3.00       0          0          0          1
2012             CIRCULAR     2.00       0          0          0          1
2965             CIRCULAR     2.00       0          0          0          1
2966             CIRCULAR     2.00       0          0          0          1
2932             TRAPEZOIDAL  2.50       6.00       0          0          1
2931             TRAPEZOIDAL  2.50       6.00       0          0          1
2930             CIRCULAR     2.50       0          0          0          1
2045             CIRCULAR     2.25       0          0          0          1
2044             CIRCULAR     1.75       0          0          0          1
2043             CIRCULAR     1.50       0          0          0          1
2042             CIRCULAR     1.50       0          0          0          1
2908             CIRCULAR     2.50       0          0          0          1
2041             CIRCULAR     2.00       0          0          0          1
2909             CIRCULAR     2.00       0          0          0          1
2040             CIRCULAR     2.00       0          0          0          1