;; SWMM5 .inp converted from XPSWMM .xp file
;; Generated by XPSWMM Card Reader
;; Source format: XP_CARD | Original title: KNOTTWOOD TEST CATCHMENT. USING OVERSIZED CHANNEL & ORIFICE TO ROUTE SAG

[TITLE]
;;Project Title/Notes
KNOTTWOOD TEST CATCHMENT. USING OVERSIZED CHANNEL & ORIFICE TO ROUTE SAG

[OPTIONS]
FLOW_UNITS           CMS
INFILTRATION         HORTON
FLOW_ROUTING         DYNWAVE
LINK_OFFSETS         DEPTH
MIN_SLOPE            0.0
ALLOW_PONDING        NO
SKIP_STEADY_STATE    NO
ROUTING_STEP         00:00:15
VARIABLE_STEP        0.75
INERTIAL_DAMPING     NONE
NORMAL_FLOW_LIMITED  BOTH
MAX_TRIALS           30

[JUNCTIONS]
;;Name           Elev       MaxDepth   InitDepth  SurDepth   Aponded
;;-------------- ---------- ---------- ---------- ---------- ----------
861              682.14     0          0          0          0
862              691.28     0          0          0          0
863              690.06     0          0          0          0
864              688.85     0          0          0          0
865              690.37     0          0          0          0
866              687.63     0          0          0          0
870              687.02     0          0          0          0
n867             689.46     0          0          0          0
8671             688.85     0          0          0          0
n868             687.93     0          0          0          0
871              685.49     0          0          0          0
872              684.88     0          0          0          0
8811             684.88     0          0          0          0
873              689.46     0          0          0          0
874              689.15     0          0          0          0
8741             690.37     0          0          0          0
875              690.37     0          0          0          0
876              689.15     0          0          0          0
877              686.71     0          0          0          0
8771             687.32     0          0          0          0
8772             687.02     0          0          0          0
878              686.41     0          0          0          0
879              686.10     0          0          0          0
8791             686.10     0          0          0          0
880              686.41     0          0          0          0
8801             687.02     0          0          0          0
8802             687.32     0          0          0          0
8803             686.71     0          0          0          0
881              686.10     0          0          0          0
882              685.34     0          0          0          0
8821             684.58     0          0          0          0
8822             685.04     0          0          0          0
8823             685.19     0          0          0          0
8824             682.39     0          0          0          0
8224             681.84     0          0          0          0
82241            681.99     0          0          0          0
L2               684.50     0          0          0          0
L1               683.60     0          0          0          0
L3               683.50     0          0          0          0
0                0          0          0          0          0
DUMMY1           0          0          0          0          0
762              0          0          0          0          0
763              0          0          0          0          0
DUMMY4           0          0          0          0          0
663              0          0          0          0          0
DUMMY6           0          0          0          0          0
764              0          0          0          0          0
DUMMY8           0          0          0          0          0
765              0          0          0          0          0
DUMMY10          0          0          0          0          0
766              0          0          0          0          0
DUMMY12          0          0          0          0          0
767              0          0          0          0          0
DUMMY14          0          0          0          0          0
768              0          0          0          0          0
DUMMY16          0          0          0          0          0
769              0          0          0          0          0
DUMMY18          0          0          0          0          0
770              0          0          0          0          0
DUMMY20          0          0          0          0          0
771              0          0          0          0          0
DUMMY22          0          0          0          0          0
671              0          0          0          0          0
DUMMY24          0          0          0          0          0
772              0          0          0          0          0
DUMMY26          0          0          0          0          0
773              0          0          0          0          0
DUMMY28          0          0          0          0          0
774              0          0          0          0          0
474              0          0          0          0          0
776              0          0          0          0          0
DUMMY32          0          0          0          0          0
777              0          0          0          0          0
DUMMY34          0          0          0          0          0
779              0          0          0          0          0
DUMMY36          0          0          0          0          0
780              0          0          0          0          0
DUMMY38          0          0          0          0          0
781              0          0          0          0          0
DUMMY40          0          0          0          0          0
782              0          0          0          0          0
DUMMY42          0          0          0          0          0
DUMMY43          0          0          0          0          0
DUMMY44          0          0          0          0          0
DUMMY45          0          0          0          0          0

[STORAGE]
;;Name           Elev       MaxDepth   InitDepth  Shape      Curve/Params
;;-------------- ---------- ---------- ---------- ---------- ----------
MEYONK           681.00     -0.59      0          FUNCTIONAL 0 0          0

[CONDUITS]
;;Name           From             To               Length     Roughness  InOffset   OutOffset  InitFlow   MaxFlow
;;-------------- ---------------- ---------------- ---------- ---------- ---------- ---------- ---------- ----------
862              862              863              342.60     0.0150     685.08     683.55     0          0
863              863              864              342.90     0.0150     682.95     681.82     0          0
864              864              865              224.64     0.0150     681.37     681.05     0          0
865              865              866              345.64     0.0150     680.96     679.97     0          0
l866             866              870              330.40     0.0150     679.88     678.90     0          0
867              n867             8671             95.40      0.0120     684.32     683.83     0          0
8671             8671             n868             315.77     0.0150     683.83     682.13     0          0
868              n868             870              126.34     0.0130     681.87     678.60     0          0
l870             870              871              401.73     0.0150     678.60     677.71     0          0
871              871              872              142.65     0.0150     677.71     677.37     0          0
872              872              8811             134.11     0.0140     677.37     677.30     0          0
873              873              874              101.04     0.0120     683.48     683.21     0          0
874              874              8741             184.71     0.0150     682.85     682.41     0          0
8741             8741             875              147.68     0.0150     682.23     681.87     0          0
875              875              876              153.01     0.0150     681.87     681.50     0          0
876              876              877              428.55     0.0150     681.50     680.31     0          0
877              877              8771             95.10      0.0120     680.04     679.93     0          0
8771             8771             8772             68.88      0.0100     679.93     679.86     0          0
8772             8772             878              88.69      0.0110     679.84     679.61     0          0
878              878              879              135.77     0.0140     679.56     679.27     0          0
879              879              8791             115.36     0.0130     679.27     679.26     0          0
8791             8791             880              87.63      0.0110     679.24     678.93     0          0
880              880              8801             196.60     0.0150     678.90     678.40     0          0
8801             8801             8802             111.71     0.0130     678.40     678.29     0          0
8802             8802             8803             126.03     0.0140     678.21     678.00     0          0
8803             8803             881              84.43      0.0110     678.00     677.98     0          0
881              881              8811             77.11      0.0110     677.98     677.60     0          0
8811             8811             882              199.64     0.0150     677.15     676.06     0          0
882              882              8821             162.46     0.0150     676.06     675.96     0          0
8821             8821             8822             106.70     0.0120     675.96     675.06     0          0
8822             8822             8823             93.27      0.0120     675.06     674.90     0          0
8823             8823             8824             203.91     0.0150     674.90     674.60     0          0
8824             8824             8224             194.77     0.0150     674.60     673.99     0          0
8224             8224             82241            183.79     0.0150     673.99     673.49     0          0
82241            82241            861              179.22     0.0150     673.49     673.34     0          0
L2               ?                Node_11601161    98.00      0.0260     681.08     679.04     0          0
L2A              ?                Node_1161516     49.00      0.0359     679.04     674.12     0          0
L1               ?                Node_12571160    93.88      0.0140     680.82     680.47     0          0
L2B              ?                Node_11601260    92.35      0.0140     680.43     680.09     0          0
7621             Node_7621        Node_1263453     240.00     0.0150     0          0          0          0
7631             Node_7631        Node_1267454     260.00     0.0150     0          0          0          0
6631             Node_6631        Node_1271454     170.00     0.0150     0          0          0          0
7641             Node_7641        Node_1275456     180.00     0.0150     0          0          0          0
7651             Node_7651        Node_1279458     430.00     0.0150     0          0          0          0
7661             Node_7661        Node_1283460     130.00     0.0150     0          0          0          0
7671             Node_7671        Node_1287464     220.00     0.0150     0          0          0          0
7681             Node_7681        Node_1291467     220.00     0.0150     0          0          0          0
7691             Node_7691        Node_1295462     160.00     0.0150     0          0          0          0
7701             Node_7701        Node_1299462     130.00     0.0150     0          0          0          0
7711             Node_7711        Node_1303470     140.00     0.0150     0          0          0          0
6711             Node_6711        Node_1307470     220.00     0.0150     0          0          0          0
7721             Node_7721        Node_1311472     190.00     0.0150     0          0          0          0
7731             Node_7731        Node_1315476     140.00     0.0150     0          0          0          0
7741             Node_7741        Node_1319477     320.00     0.0150     0          0          0          0
7761             Node_7761        Node_1323483     180.00     0.0150     0          0          0          0
7771             Node_7771        Node_1327485     220.00     0.0150     0          0          0          0
7791             Node_7791        Node_1331493     190.00     0.0150     0          0          0          0
7801             Node_7801        Node_1335497     200.00     0.0150     0          0          0          0
7811             Node_7811        Node_1339505     230.00     0.0150     0          0          0          0
7821             Node_7821        Node_1343508     240.00     0.0150     0          0          0          0
7224             Node_7224        Node_1347518     200.00     0.0150     0          0          0          0
711              Node_711         Node_13491262    186.00     0.0150     0          0          0          0

[ORIFICES]
;;Name           From             To               Type       Offset     Qcoeff     Gated    CloseTime
;;-------------- ---------------- ---------------- ---------- ---------- ---------- -------- ----------
7620             Node_7620        Node_1265453     SIDE       0          0.650      NO       0
7630             Node_7630        Node_1269454     SIDE       0          0.650      NO       0
6630             Node_6630        Node_1273454     SIDE       0          0.650      NO       0
7640             Node_7640        Node_1277456     SIDE       0          0.650      NO       0
7650             Node_7650        Node_1281458     SIDE       0          0.650      NO       0
7660             Node_7660        Node_1285460     SIDE       0          0.650      NO       0
7670             Node_7670        Node_1289464     SIDE       0          0.650      NO       0
7680             Node_7680        Node_1293467     SIDE       0          0.650      NO       0
7690             Node_7690        Node_1297462     SIDE       0          0.650      NO       0
7700             Node_7700        Node_1301462     SIDE       0          0.650      NO       0
7710             Node_7710        Node_1305470     SIDE       0          0.650      NO       0
6710             Node_6710        Node_1309470     SIDE       0          0.650      NO       0
7720             Node_7720        Node_1313472     SIDE       0          0.650      NO       0
7730             Node_7730        Node_1317476     SIDE       0          0.650      NO       0
7740             Node_7740        Node_1321477     SIDE       0          0.650      NO       0
7760             Node_7760        Node_1325483     SIDE       0          0.650      NO       0
7770             Node_7770        Node_1329485     SIDE       0          0.650      NO       0
7790             Node_7790        Node_1333493     SIDE       0          0.650      NO       0
7800             Node_7800        Node_1337497     SIDE       0          0.650      NO       0
7810             Node_7810        Node_1341505     SIDE       0          0.650      NO       0
7820             Node_7820        Node_1345508     SIDE       0          0.650      NO       0
710              Node_710         Node_13511262    SIDE       0          0.650      NO       0

[XSECTIONS]
;;Link           Shape        Geom1      Geom2      Geom3      Geom4      Barrels
;;-------------- ------------ ---------- ---------- ---------- ---------- ----------
862              CIRCULAR     0.90       0          0          0          1
863              CIRCULAR     1.20       0          0          0          1
864              CIRCULAR     1.35       0          0          0          1
865              CIRCULAR     1.35       0          0          0          1
l866             CIRCULAR     1.50       0          0          0          1
867              CIRCULAR     0.84       0          0          0          1
8671             CIRCULAR     0.90       0          0          0          1
868              CIRCULAR     1.05       0          0          0          1
l870             CIRCULAR     1.80       0          0          0          1
871              CIRCULAR     1.80       0          0          0          1
872              CIRCULAR     1.80       0          0          0          1
873              CIRCULAR     0.90       0          0          0          1
874              CIRCULAR     1.20       0          0          0          1
8741             CIRCULAR     1.35       0          0          0          1
875              CIRCULAR     1.35       0          0          0          1
876              CIRCULAR     1.35       0          0          0          1
877              CIRCULAR     1.50       0          0          0          1
8771             CIRCULAR     1.50       0          0          0          1
8772             CIRCULAR     1.50       0          0          0          1
878              CIRCULAR     1.50       0          0          0          1
879              CIRCULAR     1.50       0          0          0          1
8791             CIRCULAR     1.50       0          0          0          1
880              CIRCULAR     1.50       0          0          0          1
8801             CIRCULAR     1.50       0          0          0          1
8802             CIRCULAR     1.50       0          0          0          1
8803             CIRCULAR     1.50       0          0          0          1
881              CIRCULAR     1.50       0          0          0          1
8811             CIRCULAR     1.79       0          0          0          1
882              CIRCULAR     1.79       0          0          0          1
8821             CIRCULAR     1.79       0          0          0          1
8822             CIRCULAR     1.79       0          0          0          1
8823             CIRCULAR     1.79       0          0          0          1
8824             CIRCULAR     1.79       0          0          0          1
8224             CIRCULAR     1.79       0          0          0          1
82241            CIRCULAR     1.79       0          0          0          1
L2               CIRCULAR     0.90       0          0          0          1
L2A              CIRCULAR     0.60       0          0          0          1
L1               CIRCULAR     0.60       0          0          0          1
L2B              CIRCULAR     0.68       0          0          0          1
7621             TRAPEZOIDAL  0.50       9.00       0          0          1
7631             TRAPEZOIDAL  0.50       11.50      0          0          1
6631             TRAPEZOIDAL  0.50       9.00       0          0          1
7641             TRAPEZOIDAL  0.50       11.50      0          0          1
7651             TRAPEZOIDAL  0.50       9.00       0          0          1
7661             TRAPEZOIDAL  0.50       11.50      0          0          1
7671             TRAPEZOIDAL  0.50       11.50      0          0          1
7681             TRAPEZOIDAL  0.50       9.00       0          0          1
7691             TRAPEZOIDAL  0.50       9.00       0          0          1
7701             TRAPEZOIDAL  0.50       14.50      0          0          1
7711             TRAPEZOIDAL  0.50       9.00       0          0          1
6711             TRAPEZOIDAL  0.50       14.50      0          0          1
7721             TRAPEZOIDAL  0.50       9.00       0          0          1
7731             TRAPEZOIDAL  0.50       9.00       0          0          1
7741             TRAPEZOIDAL  0.50       9.00       0          0          1
7761             TRAPEZOIDAL  0.50       9.00       0          0          1
7771             TRAPEZOIDAL  0.50       9.00       0          0          1
7791             TRAPEZOIDAL  0.50       9.00       0          0          1
7801             TRAPEZOIDAL  0.50       9.00       0          0          1
7811             TRAPEZOIDAL  0.50       9.00       0          0          1
7821             TRAPEZOIDAL  0.50       11.50      0          0          1
7224             TRAPEZOIDAL  0.50       18.00      0          0          1
711              TRAPEZOIDAL  0.50       9.00       0          0          1
7620             RECT_CLOSED  0.50       0          0          0          
7630             RECT_CLOSED  0.50       0          0          0          
6630             RECT_CLOSED  0.50       0          0          0          
7640             RECT_CLOSED  0.50       0          0          0          
7650             RECT_CLOSED  0.50       0          0          0          
7660             RECT_CLOSED  0.50       0          0          0          
7670             RECT_CLOSED  0.50       0          0          0          
7680             RECT_CLOSED  0.50       0          0          0          
7690             RECT_CLOSED  0.50       0          0          0          
7700             RECT_CLOSED  0.50       0          0          0          
7710             RECT_CLOSED  0.50       0          0          0          
6710             RECT_CLOSED  0.50       0          0          0          
7720             RECT_CLOSED  0.50       0          0          0          
7730             RECT_CLOSED  0.50       0          0          0          
7740             RECT_CLOSED  0.50       0          0          0          
7760             RECT_CLOSED  0.50       0          0          0          
7770             RECT_CLOSED  0.50       0          0          0          
7790             RECT_CLOSED  0.50       0          0          0          
7800             RECT_CLOSED  0.50       0          0          0          
7810             RECT_CLOSED  0.50       0          0          0          
7820             RECT_CLOSED  0.50       0          0          0          
710              RECT_CLOSED  0.50       0          0          0          

[LOSSES]
;;Link           Inlet      Outlet     Average    Flap Gate
;;-------------- ---------- ---------- ---------- ----------
862              0          0          0          NO
863              0          0          0          NO
864              0          0          0          NO
865              0          0          0          NO
l866             0          0          0          NO
867              0          0          0          NO
8671             0          0          0          NO
868              0          0          0          NO
l870             0          0          0          NO
871              0          0          0          NO
872              0          0          0          NO
873              0          0          0          NO
874              0          0          0          NO
8741             0          0          0          NO
875              0          0          0          NO
876              0          0          0          NO
877              0          0          0          NO
8771             0          0          0          NO
8772             0          0          0          NO
878              0          0          0          NO
879              0          0          0          NO
8791             0          0          0          NO
880              0          0          0          NO
8801             0          0          0          NO
8802             0          0          0          NO
8803             0          0          0          NO
881              0          0          0          NO
8811             0          0          0          NO
882              0          0          0          NO
8821             0          0          0          NO
8822             0          0          0          NO
8823             0          0          0          NO
8824             0          0          0          NO
8224             0          0          0          NO
82241            0          0          0          NO
L2               0          0          0          NO
L2A              0          0          0          NO
L1               0          0          0          NO
L2B              0          0          0          NO
7621             0          0          0          NO
7631             0          0          0          NO
6631             0          0          0          NO
7641             0          0          0          NO
7651             0          0          0          NO
7661             0          0          0          NO
7671             0          0          0          NO
7681             0          0          0          NO
7691             0          0          0          NO
7701             0          0          0          NO
7711             0          0          0          NO
6711             0          0          0          NO
7721             0          0          0          NO
7731             0          0          0          NO
7741             0          0          0          NO
7761             0          0          0          NO
7771             0          0          0          NO
7791             0          0          0          NO
7801             0          0          0          NO
7811             0          0          0          NO
7821             0          0          0          NO
7224             0          0          0          NO
711              0          0          0          NO

[COORDINATES]
;;Node           X-Coord            Y-Coord
;;-------------- ------------------ ------------------
861              714.50             44.82             
862              438.29             162.27            
863              377.76             192.10            
864              447.21             214.88            
865              384.25             137.29            
866              339.22             301.32            
870              155.63             456.40            
n867             165.69             118.29            
8671             -47.71             -26.59            
n868             66.93              227.77            
871              115.74             493.51            
872              -18.87             223.49            
8811             534.42             -5.55             
873              697.44             105.33            
874              496.98             54.91             
8741             342.46             59.09             
875              352.46             76.41             
876              281.63             113.40            
877              382.73             235.65            
8771             399.78             103.73            
8772             419.78             103.73            
878              439.78             103.73            
879              497.04             246.33            
8791             477.10             93.73             
880              531.21             140.86            
8801             504.42             66.41             
8802             514.42             49.09             
8803             524.42             31.77             
881              534.96             105.48            
882              520.96             -179.78           
8821             585.51             -27.23            
8822             594.42             -5.55             
8823             614.42             -5.55             
8824             634.42             -5.55             
8224             618.98             -102.07           
82241            674.42             -5.55             
L2               634.42             -45.55            
MEYONK           634.42             -25.55            
L1               634.42             -65.55            
L3               714.42             -5.55             
0                336.80             -8.94             
DUMMY1           353.57             -6.40             
762              373.57             13.60             
763              375.02             -13.90            
DUMMY4           393.57             13.60             
663              375.02             -13.90            
DUMMY6           393.57             -26.40            
764              399.43             -20.55            
DUMMY8           413.57             13.60             
765              419.43             -20.55            
DUMMY10          433.57             13.60             
766              439.43             -20.55            
DUMMY12          453.57             13.60             
767              54.45              -165.34           
DUMMY14          97.53              41.65             
768              435.53             -18.77            
DUMMY16          434.98             -8.43             
769              473.57             13.60             
DUMMY18          454.55             -12.58            
770              473.57             -26.40            
DUMMY20          461.81             -22.58            
771              475.16             1.41              
DUMMY22          474.55             -12.58            
671              475.16             1.41              
DUMMY24          481.81             -22.58            
772              499.43             7.74              
DUMMY26          494.55             -12.58            
773              338.45             2.12              
DUMMY28          324.77             2.12              
774              321.61             23.60             
474              314.29             30.92             
776              344.29             82.88             
DUMMY32          341.61             92.88             
777              358.93             102.88            
DUMMY34          361.61             112.88            
779              441.61             112.88            
DUMMY36          448.93             120.20            
780              483.57             100.20            