;; SWMM5 .inp converted from XPSWMM .xp file
;; Generated by XPSWMM Card Reader
;; Source format: XP_CARD | Original title: (none)

[TITLE]
;;Project Title/Notes
Converted from XPSWMM .xp file

[OPTIONS]
FLOW_UNITS           CFS
INFILTRATION         HORTON
FLOW_ROUTING         DYNWAVE
LINK_OFFSETS         DEPTH
MIN_SLOPE            0.0
ALLOW_PONDING        NO
SKIP_STEADY_STATE    NO
ROUTING_STEP         00:00:60
VARIABLE_STEP        0.75
INERTIAL_DAMPING     PARTIAL
NORMAL_FLOW_LIMITED  BOTH

[JUNCTIONS]
;;Name           Elev       MaxDepth   InitDepth  SurDepth   Aponded
;;-------------- ---------- ---------- ---------- ---------- ----------
0890212          603.39     0          0          0          0
0890001          604.35     0          0          0          0
0890002          605.99     0          0          0          0
0890003          601.53     0          0          0          0
0890004          607.45     0          0          0          0
0890007          608.50     0          0          0          0
0980003          605.00     0          0          0          0
0980002          605.60     0          0          0          0
0980001          610.36     0          0          0          0
0890005          609.05     0          0          0          0
0980006          611.58     0          0          0          0
0980005          610.18     0          0          0          0
0980004          607.68     0          0          0          0
1000262          632.69     0          0          0          0
1000261          631.66     0          0          0          0
1000260          630.77     0          0          0          0
1000259          631.32     0          0          0          0
1000258          631.26     0          0          0          0
1000257          631.97     0          0          0          0
1000043          628.51     0          0          0          0
1000042          628.02     0          0          0          0
1000041          628.52     0          0          0          0
1000040          629.17     0          0          0          0
1000039          629.98     0          0          0          0
1000038          629.67     0          0          0          0
1000037          630.41     0          0          0          0
1000036          631.15     0          0          0          0
1000035          631.69     0          0          0          0
0980007          611.59     0          0          0          0
0980008          611.30     0          0          0          0
0980009          611.53     0          0          0          0
1000019          613.00     0          0          0          0
1000018          612.73     0          0          0          0
0980016          621.44     0          0          0          0
0980015          620.45     0          0          0          0
0980014          611.45     0          0          0          0
0980013          609.44     0          0          0          0
0980012          608.83     0          0          0          0
0980011          607.95     0          0          0          0
0980010          614.35     0          0          0          0
1000014          610.76     0          0          0          0
1000015          610.23     0          0          0          0
1000016          612.22     0          0          0          0
1000017          613.35     0          0          0          0
1000020          613.20     0          0          0          0
1000021          614.15     0          0          0          0
1000022          613.82     0          0          0          0
1000023          614.99     0          0          0          0
1000024          616.10     0          0          0          0
1000235          620.82     0          0          0          0
1000234          622.33     0          0          0          0
1000034          633.20     0          0          0          0
1000033          631.19     0          0          0          0
1000032          631.80     0          0          0          0
1000256          629.79     0          0          0          0
1000255          628.28     0          0          0          0
1000031          628.75     0          0          0          0
1000030          628.81     0          0          0          0
0890110          607.51     0          0          0          0
1000028          619.48     0          0          0          0
1000027          620.65     0          0          0          0
1000026          616.05     0          0          0          0
1000025          616.85     0          0          0          0
1000232          620.99     0          0          0          0
1000233          622.75     0          0          0          0
1000044          616.30     0          0          0          0
1000045          622.88     0          0          0          0
1000046          624.09     0          0          0          0
1000047          623.72     0          0          0          0
1000048          623.94     0          0          0          0
1000049          622.56     0          0          0          0
1000050          622.97     0          0          0          0
1000051          622.36     0          0          0          0
1000063          639.73     0          0          0          0
1000062          638.67     0          0          0          0
1000061          638.50     0          0          0          0
1000060          636.23     0          0          0          0
1000059          633.80     0          0          0          0
1000058          631.66     0          0          0          0
1000057          630.42     0          0          0          0
1000056          630.45     0          0          0          0
1000055          631.74     0          0          0          0
1000054          629.70     0          0          0          0
1000053          624.14     0          0          0          0
1000052          622.82     0          0          0          0
0970001          626.62     0          0          0          0
0970002          626.64     0          0          0          0
0970003          630.76     0          0          0          0
0970004          630.76     0          0          0          0
0980022          620.03     0          0          0          0
0980021          620.27     0          0          0          0
0980019          620.60     0          0          0          0
0980020          619.56     0          0          0          0
0980023          616.47     0          0          0          0
0980024          614.19     0          0          0          0
0980025          616.95     0          0          0          0
0980026          619.67     0          0          0          0
0980027          620.15     0          0          0          0
0980028          619.63     0          0          0          0
0980029          618.15     0          0          0          0
0980030          618.28     0          0          0          0
0980031          618.32     0          0          0          0
0980032          621.15     0          0          0          0
0980033          622.69     0          0          0          0
0980034          624.53     0          0          0          0
0980035          623.27     0          0          0          0
0980036          623.11     0          0          0          0
0980037          624.05     0          0          0          0
0980038          625.60     0          0          0          0
0980044          618.11     0          0          0          0
0980045          621.53     0          0          0          0
0980046          620.74     0          0          0          0
0980047          620.05     0          0          0          0
0980048          624.67     0          0          0          0
0980049          628.47     0          0          0          0
0980050          626.48     0          0          0          0
0980040          619.08     0          0          0          0
0980041          621.35     0          0          0          0
0980042          620.91     0          0          0          0
0980043          619.97     0          0          0          0
0980051          618.79     0          0          0          0
0980052          618.17     0          0          0          0
0980053          619.43     0          0          0          0
0980054          620.07     0          0          0          0
0980055          620.61     0          0          0          0
0980056          623.24     0          0          0          0
0980057          625.28     0          0          0          0
0980058          624.52     0          0          0          0
0980039          615.61     0          0          0          0
0980059          615.62     0          0          0          0
0980064          621.08     0          0          0          0
0980065          620.71     0          0          0          0
0980066          621.29     0          0          0          0
0980110          622.70     0          0          0          0
0980067          627.61     0          0          0          0
0980068          625.72     0          0          0          0
0980069          625.93     0          0          0          0
0980075          623.67     0          0          0          0
0980082          624.01     0          0          0          0
0980060          621.17     0          0          0          0
0980061          622.03     0          0          0          0
0980062          622.76     0          0          0          0
0980063          621.46     0          0          0          0
0980070          620.99     0          0          0          0
0980071          623.71     0          0          0          0
0980072          624.41     0          0          0          0
0980073          628.31     0          0          0          0
0980074          626.60     0          0          0          0
0980076          622.82     0          0          0          0
0980077          622.47     0          0          0          0
0980078          625.51     0          0          0          0
0980079          634.87     0          0          0          0
0980080          646.00     0          0          0          0
0980081          651.92     0          0          0          0
0980083          624.25     0          0          0          0
0980084          623.78     0          0          0          0
0980085          625.68     0          0          0          0
0980086          630.78     0          0          0          0
0980087          635.58     0          0          0          0
0980088          643.06     0          0          0          0
0980089          622.83     0          0          0          0
0980090          623.81     0          0          0          0
0980091          624.63     0          0          0          0
0980098          623.28     0          0          0          0
0980099          623.58     0          0          0          0
0980100          624.78     0          0          0          0
0980093          624.36     0          0          0          0
0980092          624.40     0          0          0          0
0980094          626.13     0          0          0          0
0980095          628.43     0          0          0          0
0980096          633.25     0          0          0          0
0980097          639.26     0          0          0          0
0980105          623.97     0          0          0          0
0980102          624.86     0          0          0          0
0980101          624.38     0          0          0          0
0980103          626.06     0          0          0          0
0980104          626.51     0          0          0          0
0980107          627.95     0          0          0          0
0980108          630.84     0          0          0          0
0980109          634.23     0          0          0          0
0970188          680.69     0          0          0          0
0970187          679.28     0          0          0          0
0970186          679.21     0          0          0          0
0970184          675.94     0          0          0          0
0970185          675.44     0          0          0          0
0970189          673.31     0          0          0          0
0970190          675.63     0          0          0          0
0970191          676.30     0          0          0          0
0980106          625.57     0          0          0          0
1009811          660.42     0          0          0          0
1009812          661.17     0          0          0          0
1009813          661.75     0          0          0          0
1009814          662.05     0          0          0          0
1009815          662.26     0          0          0          0
1009816          662.71     0          0          0          0
1009817          662.89     0          0          0          0
1009818          663.56     0          0          0          0
1009819          660.67     0          0          0          0
100LS32          662.03     0          0          0          0
1000193          664.40     0          0          0          0
1000199          666.46     0          0          0          0
1000200          671.50     0          0          0          0
1000201          673.35     0          0          0          0
1000202          675.85     0          0          0          0
1000203          676.80     0          0          0          0
1000204          674.59     0          0          0          0
1000205          675.16     0          0          0          0
1000206          675.78     0          0          0          0
1000102          652.12     0          0          0          0
1000103          652.91     0          0          0          0
1000099          654.78     0          0          0          0
1000098          652.88     0          0          0          0
1000096          655.27     0          0          0          0
1000097          655.11     0          0          0          0
1000095          654.81     0          0          0          0
1000094          648.44     0          0          0          0
1000091          653.52     0          0          0          0
1000090          653.87     0          0          0          0
1000089          651.02     0          0          0          0
1000086          647.58     0          0          0          0
1000085          650.95     0          0          0          0
1000087          652.72     0          0          0          0
1000082          648.55     0          0          0          0
1000083          650.04     0          0          0          0
1000084          651.12     0          0          0          0
1000115          658.18     0          0          0          0
1000116          659.14     0          0          0          0
1000088          652.73     0          0          0          0
1000092          653.04     0          0          0          0
1000093          649.96     0          0          0          0
1000100          651.77     0          0          0          0
1000101          654.15     0          0          0          0
1000104          656.64     0          0          0          0
1000110          656.30     0          0          0          0
1000111          658.45     0          0          0          0
1000081          648.93     0          0          0          0
1000114          656.63     0          0          0          0
1000105          654.03     0          0          0          0
1000106          654.88     0          0          0          0
1000107          657.14     0          0          0          0
1000152          668.17     0          0          0          0
1000154          665.64     0          0          0          0
1000153          665.48     0          0          0          0
1000151          670.70     0          0          0          0
1000150          671.73     0          0          0          0
1000149          665.28     0          0          0          0
1000147          669.49     0          0          0          0
1000146          664.02     0          0          0          0
1000145          663.02     0          0          0          0
1000144          662.88     0          0          0          0
1000143          663.15     0          0          0          0
1000142          663.15     0          0          0          0
1009807          650.96     0          0          0          0
1009808          651.19     0          0          0          0
097DIV4          661.94     0          0          0          0
1000138          650.31     0          0          0          0
1009801          646.94     0          0          0          0
1009802          648.05     0          0          0          0
1009803          648.98     0          0          0          0
1009804          649.90     0          0          0          0
1009805          650.83     0          0          0          0
1009806          651.41     0          0          0          0
1000231          648.76     0          0          0          0
1000230          648.91     0          0          0          0
1000139          659.51     0          0          0          0
1000140          661.41     0          0          0          0
1000141          662.95     0          0          0          0
1000155          663.93     0          0          0          0
1000249          664.09     0          0          0          0
1000148          667.41     0          0          0          0
1000156          669.76     0          0          0          0
1000157          673.71     0          0          0          0
1000238          674.22     0          0          0          0
1009809          659.55     0          0          0          0
1009810          660.13     0          0          0          0
1009820          660.97     0          0          0          0
1009821          661.04     0          0          0          0
1009822          662.02     0          0          0          0
1000254          662.26     0          0          0          0
1000253          661.93     0          0          0          0
1000175          666.87     0          0          0          0
1000174          669.32     0          0          0          0
1000173          671.39     0          0          0          0
1000192          662.63     0          0          0          0
1000191          663.01     0          0          0          0
1000186          664.11     0          0          0          0
1000187          663.86     0          0          0          0
1000188          663.85     0          0          0          0
1000189          665.32     0          0          0          0
1000190          665.98     0          0          0          0
1000194          665.19     0          0          0          0
1000195          665.25     0          0          0          0
1000196          669.30     0          0          0          0
1000207          673.00     0          0          0          0
1000208          674.24     0          0          0          0
1000250          674.54     0          0          0          0
1000212          673.27     0          0          0          0
1000213          669.03     0          0          0          0
1000217          671.20     0          0          0          0
0970721          665.84     0          0          0          0
0970720          664.61     0          0          0          0
0970729          658.99     0          0          0          0
0970728          661.85     0          0          0          0
0970730          662.56     0          0          0          0
0970745          663.47     0          0          0          0
0970806          665.94     0          0          0          0
0970807          673.28     0          0          0          0
0970731          662.15     0          0          0          0
0970732          666.84     0          0          0          0
0970733          667.93     0          0          0          0
0970734          669.10     0          0          0          0
0970805          667.70     0          0          0          0
0970735          669.79     0          0          0          0
0970736          668.57     0          0          0          0
0970028          649.88     0          0          0          0
0970027          649.04     0          0          0          0
0970016          636.11     0          0          0          0
0970015          636.38     0          0          0          0
0970005          630.89     0          0          0          0
0970009          631.18     0          0          0          0
0970008          629.45     0          0          0          0
0970007          632.65     0          0          0          0
0970006          631.78     0          0          0          0
0970010          631.53     0          0          0          0
0970011          634.19     0          0          0          0
0970012          634.55     0          0          0          0
0970013          634.31     0          0          0          0
0970014          634.95     0          0          0          0
0970017          638.52     0          0          0          0
0970018          640.70     0          0          0          0
0970019          642.93     0          0          0          0
0970020          643.53     0          0          0          0
0970021          645.83     0          0          0          0
0970022          646.52     0          0          0          0
0970023          645.64     0          0          0          0
0970024          648.18     0          0          0          0
0970025          648.52     0          0          0          0
0970026          648.72     0          0          0          0
1000064          633.25     0          0          0          0
1000241          635.04     0          0          0          0
1000242          638.30     0          0          0          0
1000067          634.84     0          0          0          0
1000068          639.53     0          0          0          0
1000069          641.02     0          0          0          0
1009823          632.81     0          0          0          0
1000071          643.18     0          0          0          0
1000072          642.85     0          0          0          0
1000073          642.01     0          0          0          0
1000074          647.65     0          0          0          0
1000137          651.10     0          0          0          0
1000136          668.70     0          0          0          0
1000075          647.55     0          0          0          0
1000076          648.73     0          0          0          0
0970727          662.00     0          0          0          0
1000077          647.57     0          0          0          0
1000078          649.18     0          0          0          0
1000079          650.00     0          0          0          0
1000080          650.93     0          0          0          0
1000131          654.54     0          0          0          0
1000132          655.30     0          0          0          0
1000133          656.05     0          0          0          0
1000134          657.18     0          0          0          0
1000135          657.80     0          0          0          0
1000124          653.64     0          0          0          0
1000125          654.70     0          0          0          0
1000126          655.55     0          0          0          0
1000127          656.73     0          0          0          0
1000128          657.11     0          0          0          0
1000129          657.67     0          0          0          0
1000130          658.04     0          0          0          0
1000119          655.88     0          0          0          0
1000120          656.24     0          0          0          0
1000121          659.10     0          0          0          0
1000122          658.98     0          0          0          0
1000123          659.96     0          0          0          0
0970813          675.45     0          0          0          0
0970814          674.70     0          0          0          0
0970139          671.88     0          0          0          0
0970132          662.94     0          0          0          0
0970763          663.59     0          0          0          0
0970131          659.36     0          0          0          0
0970130          654.14     0          0          0          0
0970129          689.23     0          0          0          0
0970128          695.32     0          0          0          0
0970127          689.32     0          0          0          0
0970126          668.44     0          0          0          0
0970125          663.32     0          0          0          0
0970124          657.62     0          0          0          0
0970123          654.32     0          0          0          0
0970122          661.97     0          0          0          0
0970121          655.83     0          0          0          0
0970120          651.70     0          0          0          0
0970778          652.47     0          0          0          0
0970740          653.78     0          0          0          0
0970741          653.25     0          0          0          0
0970742          654.55     0          0          0          0
0970743          654.17     0          0          0          0
097DIV1          652.56     0          0          0          0
0970794          655.97     0          0          0          0
0970793          655.27     0          0          0          0
0970792          655.78     0          0          0          0
0970152          651.65     0          0          0          0
0970100          643.17     0          0          0          0
0970105          644.65     0          0          0          0
0970104          644.94     0          0          0          0
0970103          643.94     0          0          0          0
0970102          645.60     0          0          0          0
0970101          641.90     0          0          0          0
0970099          643.96     0          0          0          0
0970098          645.25     0          0          0          0
0970097          644.86     0          0          0          0
0970096          645.64     0          0          0          0
0970095          642.83     0          0          0          0
0970094          643.30     0          0          0          0
0970809          640.75     0          0          0          0
0970088          642.30     0          0          0          0
0970089          644.87     0          0          0          0
0970090          644.54     0          0          0          0
0970091          644.34     0          0          0          0
0970093          644.02     0          0          0          0
0970092          642.35     0          0          0          0
0970151          651.65     0          0          0          0
0970150          638.80     0          0          0          0
0970149          650.10     0          0          0          0
0970148          647.05     0          0          0          0
0970147          645.83     0          0          0          0
0970146          646.55     0          0          0          0
0970145          646.03     0          0          0          0
0970777          644.68     0          0          0          0
0970144          645.25     0          0          0          0
0970078          638.51     0          0          0          0
0970077          634.73     0          0          0          0
0970076          633.06     0          0          0          0
0970075          632.26     0          0          0          0
0970072          640.80     0          0          0          0
0970073          640.63     0          0          0          0
0970074          641.69     0          0          0          0
0970070          639.99     0          0          0          0
0970069          640.39     0          0          0          0
0970071          639.60     0          0          0          0
0970068          640.66     0          0          0          0
0970775          641.44     0          0          0          0
0970067          639.10     0          0          0          0
0970066          638.30     0          0          0          0
0970065          638.94     0          0          0          0
0970064          633.95     0          0          0          0
0970063          634.09     0          0          0          0
0970062          632.68     0          0          0          0
0970791          633.69     0          0          0          0
0970029          632.84     0          0          0          0
0970030          634.21     0          0          0          0
0970031          630.70     0          0          0          0
0970804          631.24     0          0          0          0
0970032          632.78     0          0          0          0
0970033          633.80     0          0          0          0
0970034          634.02     0          0          0          0
0970039          631.48     0          0          0          0
0970038          635.00     0          0          0          0
0970040          642.24     0          0          0          0
0970041          644.94     0          0          0          0
0970044          644.62     0          0          0          0
0970043          643.47     0          0          0          0
0970042          638.21     0          0          0          0
0970037          637.35     0          0          0          0
0970036          633.77     0          0          0          0