;; SWMM5 .inp converted from XPSWMM .xp file
;; Generated by XPSWMM Card Reader
;; Source format: XP_CARD | Original title: C103-NC-FC CONTNUOUS GW 2.2 RAIN 95

[TITLE]
;;Project Title/Notes
C103-NC-FC CONTNUOUS GW 2.2 RAIN 95

[OPTIONS]
FLOW_UNITS           CFS
INFILTRATION         HORTON
FLOW_ROUTING         DYNWAVE
LINK_OFFSETS         DEPTH
MIN_SLOPE            0.0
ALLOW_PONDING        NO
SKIP_STEADY_STATE    NO
ROUTING_STEP         00:00:30
VARIABLE_STEP        0.75
INERTIAL_DAMPING     PARTIAL
NORMAL_FLOW_LIMITED  BOTH
MAX_TRIALS           50
HEAD_TOLERANCE       0.0033

[JUNCTIONS]
;;Name           Elev       MaxDepth   InitDepth  SurDepth   Aponded
;;-------------- ---------- ---------- ---------- ---------- ----------
U1-E             7.48       0          5.20       0          0
U2-W             7.48       0          5.20       0          0
U2-E             10.00      0          6.00       0          0
U3-W             10.00      0          6.00       0          0
U3-E             7.43       0          7.01       0          0
U4-FC15          7.43       0          7.01       0          0
U4-E             7.20       0          19.49      0          0
U6-E             7.71       0          15.19      0          0
U7-W             7.71       0          15.19      0          0
U7-E             6.20       0          11.70      0          0
B1-W             10.00      0          11.70      0          0
U10-W            7.46       0          10.88      0          0
U10-E            7.21       0          10.88      0          0
FC-1             6.60       0          11.45      0          0
U12-E            6.01       0          9.12       0          0
FC-2             7.70       0          11.50      0          0
L31E-1           10.00      0          13.00      0          0
U5-W             10.68      0          19.99      0          0
U5-E             7.52       0          13.72      0          0
U6-W             7.52       0          13.72      0          0
B1-E             10.00      0          12.03      0          0
U8-W             6.47       0          12.03      0          0
U8-E             6.13       0          10.98      0          0
U9-W             6.13       0          10.98      0          0
U9-E             6.50       0          11.10      0          0
B2-W             10.00      0          11.10      0          0
B2-E             10.00      0          10.88      0          0
U11-W            6.47       0          9.69       0          0
U11-E            6.60       0          10.20      0          0
B3-W             7.50       0          11.28      0          0
B3-E             7.50       0          11.85      0          0
U12-W-FC03       5.58       0          11.85      0          0
U14-N            7.50       0          8.95       0          0
U16-W            12.00      0          8.95       0          0
U16-E            6.70       0          5.99       0          0
U17-W            8.20       0          5.99       0          0
U17-E            8.20       0          12.01      0          0
B4-W             10.75      0          12.01      0          0
B4-E             10.75      0          9.44       0          0
NC-1             7.11       0          9.44       0          0
U18W-N007        7.70       0          9.26       0          0
U18-E            7.70       0          8.14       0          0
U15-N            7.19       0          11.50      0          0
U14-S            7.50       0          11.50      0          0
U19-W            7.70       0          8.14       0          0
U19-E            7.70       0          8.56       0          0
NC-2             7.98       0          11.01      0          0
NC-3             7.98       0          10.40      0          0
B5-W             7.98       0          9.01       0          0
B5-E             7.15       0          10.40      0          0
U20-W-N003       8.00       0          10.40      0          0
U20A-E           6.40       0          13.40      0          0
L31E-2           10.00      0          13.40      0          0
U19A-S           7.00       0          4.45       0          0
U19B-N           7.00       0          6.60       0          0
L31E-3           10.00      0          13.10      0          0
U10A-E           10.00      0          4.14       0          0
E11-12-NW        10.00      0          4.00       0          0
U21-S            11.10      0          4.00       0          0
U21-N            10.00      0          11.20      0          0
B27-W            15.00      0          11.20      0          0
B27-E            10.00      0          11.90      0          0
B28-S            10.00      0          11.90      0          0
B28-N            10.00      0          10.40      0          0
B29-W            10.00      0          10.40      0          0
B29-E            10.00      0          13.30      0          0
C103-2           10.80      0          16.50      0          0
B7-E             11.99      0          8.20       0          0
MW13             10.00      0          8.20       0          0
B8-W             12.17      0          7.50       0          0
B8-E             12.17      0          5.30       0          0
S196-W           10.00      0          5.30       0          0
S196-E           10.00      0          8.00       0          0
U20-E            10.00      0          7.20       0          0
B9-N             11.18      0          7.20       0          0
B9-S             11.18      0          6.80       0          0
B10-W            11.15      0          6.80       0          0
B10-E            11.15      0          7.00       0          0
B11-W            11.17      0          7.00       0          0
B11-E            11.18      0          7.30       0          0
B12-W            11.18      0          7.30       0          0
B12-E            11.18      0          7.50       0          0
B13-W            11.10      0          7.50       0          0
B13-E            11.10      0          7.50       0          0
B14-W            11.36      0          7.50       0          0
B14-E            11.50      0          6.50       0          0
S167-W           15.00      0          6.50       0          0
S167-E           10.00      0          11.30      0          0
B15-N            9.81       0          11.30      0          0
B15-S            10.00      0          9.60       0          0
B16-W            10.00      0          9.60       0          0
B16-E            10.00      0          10.50      0          0
C103-1           10.00      0          12.00      0          0
B20-N            8.77       0          12.00      0          0
B20-S            8.77       0          10.10      0          0
B22-W            10.70      0          16.50      0          0
B22-E            10.70      0          15.90      0          0
B23-W            8.45       0          14.90      0          0
B23-E            8.45       0          15.10      0          0
C103-3           11.20      0          15.20      0          0
S179-W           10.00      0          15.20      0          0
S179-E           12.00      0          17.60      0          0
B24-W-MW07       13.52      0          17.60      0          0
B24-E            13.52      0          15.60      0          0
B25-W            9.80       0          15.50      0          0
B25-E            9.80       0          17.10      0          0
B26-W-MW04       9.97       0          17.10      0          0
B26-E            9.97       0          15.90      0          0
MW03             10.00      0          16.50      0          0
C103-4           10.00      0          16.50      0          0
U22-S            12.00      0          1.20       0          0
U23-N            12.00      0          1.20       0          0
U23-S            12.00      0          1.20       0          0
U24-N            12.00      0          1.20       0          0
U24-S            12.00      0          1.20       0          0
B30A-E           12.00      0          9.00       0          0
B30-W            12.00      0          9.43       0          0
B30-E            10.00      0          9.43       0          0
B31-W            14.00      0          9.43       0          0
B31-E            14.00      0          9.16       0          0
B32-N-MW05       12.00      0          9.16       0          0
B32-S            12.00      0          9.16       0          0
S166-NW          16.00      0          9.16       0          0
S166-SW          12.00      0          8.30       0          0
U30-W            10.00      0          11.20      0          0
B35-N            10.20      0          11.20      0          0
B35-S            9.00       0          11.70      0          0
B36-N            10.00      0          11.70      0          0
B36-S            10.00      0          15.10      0          0
C103N-1          12.40      0          15.10      0          0
B39-N            6.88       0          14.90      0          0
B39-S            6.88       0          14.40      0          0
U29-W            10.00      0          13.40      0          0
U29-E            11.10      0          12.90      0          0
U28-S            10.00      0          12.90      0          0
U28-N            11.10      0          15.60      0          0
U27-S            12.60      0          15.50      0          0
U27-N            12.60      0          12.50      0          0
U26-S            12.60      0          12.40      0          0
U26-N            12.60      0          13.70      0          0
U30-E            10.00      0          13.40      0          0
E11-12-SE        10.00      0          4.14       0          0
U10A-W           10.00      0          4.14       0          0
B19-S            12.00      0          12.00      0          0
B19-N            12.00      0          12.00      0          0

[OUTFALLS]
;;Name           Elev       Type       Stage      Gated
;;-------------- ---------- ---------- ---------- -----
S20F             10.00      FREE                  NO

[STORAGE]
;;Name           Elev       MaxDepth   InitDepth  Shape      Curve/Params
;;-------------- ---------- ---------- ---------- ---------- ----------
U1-W             10.00      0          1.36       FUNCTIONAL 0 0          0
CFC-N-2          10.00      0          0          FUNCTIONAL 0 0          0
CFC-N-1          10.68      0          0          FUNCTIONAL 0 0          0
U15-S            11.50      0          4.30       FUNCTIONAL 6450000.00 0          0
FC-S-1           10.00      0          0          FUNCTIONAL 7350000.00 0          0
FC-S-2           10.00      0          0          FUNCTIONAL 19400000.00 0          0
FC-N-1           10.00      0          0          FUNCTIONAL 1780000.00 0          0
FC-N-2           10.00      0          0          FUNCTIONAL 2610000.00 0          0
FC-N-3           10.00      0          0          FUNCTIONAL 7300000.00 0          0
FC-S-3           10.00      0          0          FUNCTIONAL 14400000.00 0          0
FC-N-4           10.00      0          0          FUNCTIONAL 2340000.00 0          0
FC-S-4           10.00      0          0          FUNCTIONAL 28200000.00 0          0
FC-N-5           10.00      0          0          FUNCTIONAL 2090000.00 0          0
FC-S-5           10.00      0          0          FUNCTIONAL 14000000.00 0          0
FC-N-6           10.00      0          0          FUNCTIONAL 0 0          0
FC-S-6           10.00      0          0          FUNCTIONAL 28200000.00 0          0
FC-S-7           10.00      0          0          FUNCTIONAL 28300000.00 0          0
FC-N-7           10.00      0          0          FUNCTIONAL 14100000.00 0          0
FC-N-8           10.00      0          0          FUNCTIONAL 21000000.00 0          0
FC-S-8           10.00      0          0          FUNCTIONAL 28200000.00 0          0
FC-N-9           10.00      0          0.30       FUNCTIONAL 10500000.00 0          0
FC-S-9           10.00      0          0.30       FUNCTIONAL 21100000.00 0          0
FC-N-10          10.00      0          0.65       FUNCTIONAL 12700000.00 0          0
FC-S-10          10.00      0          0.60       FUNCTIONAL 18600000.00 0          0
FC-N-11          10.00      0          0.40       FUNCTIONAL 3550000.00 0          0
NC-N-2           10.00      0          0          FUNCTIONAL 0 0          0
NC-S-3           10.00      0          0          FUNCTIONAL 5920000.00 0          0
NC-S-4           10.00      0          0          FUNCTIONAL 7950000.00 0          0
NC-N-3           10.00      0          0          FUNCTIONAL 0 0          0
NC-N-4           10.00      0          0          FUNCTIONAL 7000000.00 0          0
NC-S-5           10.00      0          0          FUNCTIONAL 6000000.00 0          0
NC-S-6           10.00      0          0          FUNCTIONAL 14000000.00 0          0
NC-N-5           10.00      0          0          FUNCTIONAL 14000000.00 0          0
NC-N-6           10.00      0          0          FUNCTIONAL 7030000.00 0          0
NC-S-7           10.00      0          0          FUNCTIONAL 7100000.00 0          0
NC-N-7           10.00      0          0          FUNCTIONAL 14000000.00 0          0
NC-S-8           10.00      0          0.05       FUNCTIONAL 14000000.00 0          0
NC-N-8           10.00      0          0          FUNCTIONAL 7780000.00 0          0
NC-S-9           10.00      0          0.05       FUNCTIONAL 6900000.00 0          0
NC-N-9           10.00      0          0.10       FUNCTIONAL 7700000.00 0          0
NC-S-10          10.00      0          0.20       FUNCTIONAL 10500000.00 0          0
NC-N-10          10.00      0          0.65       FUNCTIONAL 10700000.00 0          0
NC-S-11          10.00      0          0.65       FUNCTIONAL 16900000.00 0          0
NC-N-1           10.00      0          0          FUNCTIONAL 2840000.00 0          0
U13-W            10.00      0          4.14       FUNCTIONAL 0 0          0
CC103S-S-2       12.50      0          0          FUNCTIONAL 65800000.00 0          0
CC103S-S-1       12.00      -0.50      0          FUNCTIONAL 12900000.00 0          0
L31-W-1          11.00      -1.00      8.40       FUNCTIONAL 1200000.00 0          0
B7-W             12.00      -1.00      8.40       FUNCTIONAL 0 0          0
U20-W            10.00      0          8.00       FUNCTIONAL 28800.00 0          0
CC103-N-2        12.00      -0.90      0          FUNCTIONAL 43100000.00 0          0
CC103-N-3        14.00      0          0          FUNCTIONAL 42100000.00 0          0
C103-S-1         11.00      0          0          FUNCTIONAL 11600000.00 0          0
C103-N-1         11.00      0          0          FUNCTIONAL 11900000.00 0          0
C103-N-2         12.00      0          0          FUNCTIONAL 41900000.00 0          0
C103-S-2         10.00      0          0          FUNCTIONAL 70500000.00 0          0
C103-N-3         11.00      0          0          FUNCTIONAL 23600000.00 0          0
C103-S-3         10.00      0          0          FUNCTIONAL 18700000.00 0          0
C103-N-4         14.00      0          0          FUNCTIONAL 35300000.00 0          0
C103-S-4         10.00      0          0          FUNCTIONAL 49700000.00 0          0
C103-N-5         15.00      0          0          FUNCTIONAL 24900000.00 0          0
C103-S-5         15.00      -5.00      0          FUNCTIONAL 31300000.00 0          0
C103-N-6         12.00      -2.00      0          FUNCTIONAL 29300000.00 0          0
C103-S-6         12.00      -2.00      0          FUNCTIONAL 14700000.00 0          0
C103-N-7         10.00      0          0          FUNCTIONAL 21600000.00 0          0
C103-S-7         10.00      0          0          FUNCTIONAL 21300000.00 0          0
C103-N-8         12.00      -0.70      0          FUNCTIONAL 15900000.00 0          0
C103-S-8         10.00      0          0          FUNCTIONAL 12200000.00 0          0
C103N-N-5        10.01      -0.01      0          FUNCTIONAL 25800000.00 0          0
C103-N-9         10.00      0          0          FUNCTIONAL 22100000.00 0          0
C103-S-9         10.00      0          0          FUNCTIONAL 10800000.00 0          0
C103-N-10        10.00      0          0.85       FUNCTIONAL 71800000.00 0          0
C103-S-10        10.00      0          0.75       FUNCTIONAL 8160000.00 0          0
C103N-N-1        12.00      0          1.20       FUNCTIONAL 15500000.00 0          0
B30A-W           12.00      0.50       9.00       FUNCTIONAL 0 0          0
CC103N-N-1       15.50      0          0          FUNCTIONAL 69700000.00 0          0
C103N-S-2        12.00      0          0          FUNCTIONAL 22800000.00 0          0
CC103N-N-2       15.00      0          0          FUNCTIONAL 17200000.00 0          0
C103N-N-2        15.00      0          0          FUNCTIONAL 61900000.00 0          0
C103N-N-3        14.00      -0.60      0          FUNCTIONAL 39700000.00 0          0
CC103N-N-3       15.00      0          0          FUNCTIONAL 27100000.00 0          0
C103N-S-4        12.00      -1.80      0          FUNCTIONAL 0 0          0
NA-1             12.80      -2.80      13.70      FUNCTIONAL 0 0          0
C103N-S-6        12.00      -0.70      0          FUNCTIONAL 13700000.00 0          0
C103S-S-1        12.00      -0.60      0          FUNCTIONAL 7010000.00 0          0
C103S-S-2        12.50      0          0          FUNCTIONAL 4260000.00 0          0
C103S-S-3        12.00      -1.10      0          FUNCTIONAL 9100000.00 0          0
C103S-N-1        12.40      0          0          FUNCTIONAL 21100000.00 0          0
CC103-N-1        13.00      0          0          FUNCTIONAL 45400000.00 0          0
C103N-S-1        15.00      -3.00      0          FUNCTIONAL 35000000.00 0          0
NA-W-1           10.80      0          0          FUNCTIONAL 9360000.00 0          0
NA-E-1           11.20      0          0          FUNCTIONAL 12000000.00 0          0
NA-N-1           12.90      0          0          FUNCTIONAL 10100000.00 0          0
C103N-S-5        12.50      0          0          FUNCTIONAL 56500000.00 0          0
CC103S-S-0       11.60      0          0          FUNCTIONAL 0 0          0
C103N-S-3        17.00      0          0          FUNCTIONAL 24300000.00 0          0

[CONDUITS]
;;Name           From             To               Length     Roughness  InOffset   OutOffset  InitFlow   MaxFlow
;;-------------- ---------------- ---------------- ---------- ---------- ---------- ---------- ---------- ----------
U1               U1-W             U1-E             130.00     0.0140     0.84       -2.31      0          0
FC-C-1           U1-E             U2-W             500.00     0          -3.00      -3.00      0          0
U2               U2-W             U2-E             120.00     0.0140     -2.00      -2.00      0          0
FC-C-2           U2-E             U3-W             1026.00    0.0140     -3.80      -3.80      0          0
U3               U3-W             U3-E             115.00     0.0140     -2.10      -2.10      0          0
FC-C-3           U3-E             U4-FC15          2633.00    0          -4.81      -4.81      0          0
U4               U4-FC15          U4-E             663.00     0.0140     -4.70      -4.70      0          0
FC-C-4           U4-E             U5-W             2570.00    0          -17.29     -17.29     0          0
U5               U5-W             U5-E             160.00     0.0140     -5.20      -5.20      0          0
FC-C-5           U5-E             U6-W             2069.00    0          -11.52     -11.52     0          0
FC-C-6           U6-E             U7-W             4134.00    0          -12.99     -12.99     0          0
FC-C-7           U7-E             B1-W             997.00     0          -9.50      -9.50      0          0
B1               B1-W             B1-E             16.00      0.0340     -3.11      -3.11      0          0
FC-C-8           B1-E             U8-W             2618.00    0          -9.83      -9.83      0          0
U8               U8-W             U8-E             170.00     0.0140     -8.78      -8.78      0          0
FC-C-9           U8-E             U9-W             1310.00    0          -8.78      -8.78      0          0
U9               U9-W             U9-E             177.00     0.0140     -8.78      -8.90      0          0
FC-C-10          U9-E             B2-W             1230.00    0          -8.90      -8.90      0          0
B2               B2-W             B2-E             27.00      0.0340     -4.80      -4.80      0          0
FC-C-11          B2-E             U10-W            810.00     0          -8.68      -8.68      0          0
U10              U10-W            U10-E            136.30     0.0140     -7.54      -7.79      0          0
FC-C-12          U10-E            U11-W            1850.00    0          -7.49      -7.49      0          0
FC-C-13          U11-E            FC-1             5322.00    0          -8.00      -8.00      0          0
FC-C-14          FC-1             B3-W             2675.00    0          -9.06      -9.06      0          0
B3               B3-W             B3-E             18.00      0          -7.28      -7.28      0          0
FC-C-15          B3-E             U12-W-FC03       3974.00    0          -9.65      -9.65      0          0
FC-C16           U12-E            FC-2             5771.00    0          -6.92      -6.92      0          0
L31-E-1          FC-2             L31E-1           2887.00    0          -9.30      -9.30      0          0
NC-C-2           U14-N            U16-W            2507.00    0          -6.75      -6.75      0          0
U16              U16-W            U16-E            46.00      0.0140     -0.20      -0.30      0          0
NC-C-3           U16-E            U17-W            2612.00    0          -3.79      -3.79      0          0
NC-C-4           U17-E            B4-W             2570.00    0          -9.81      -9.81      0          0
B4               B4-W             B4-E             40.00      0.0340     -3.40      -3.40      0          0
NC-C-5           B4-E             NC-1             2675.00    0          -7.24      -7.24      0          0
NC-C-6           NC-1             U18W-N007        2622.00    0          -7.06      -7.06      0          0
U15              U15-N            U15-S            250.00     0.0140     -2.10      -2.10      0          0
NC-C-S-2         U14-S            U15-N            931.00     0          -9.30      -9.30      0          0
NC-C-7           U18-E            U19-W            2615.00    0.0140     -5.94      -5.94      0          0
NC-C-8           U19-E            NC-2             2651.00    0          -6.36      -6.36      0          0
NC-C-9           NC-2             NC-3             2667.00    0          -6.81      -6.81      0          0
NC-C-10          NC-3             B5-W             2667.00    0          -6.81      -6.81      0          0
B5               B5-W             B5-E             20.00      0.0340     -4.43      -4.43      0          0
NC-C-11          B5-E             U20-W-N003       3980.00    0.0140     -8.20      -8.20      0          0
NC-C-12          U20A-E           L31E-2           6685.00    0          -11.20     -11.20     0          0
L31-E-3          L31E-2           L31E-3           1737.00    0          -10.90     -10.90     0          0
L31-E-2          L31E-1           L31E-2           2724.00    0          -10.80     -10.80     0          0
U17-1            U17-2            U17-E            146.00     0.0140     -3.79      -3.80      0          0
U18-1            U18-2            U18-3            177.00     0.0140     -4.10      -4.10      0          0
U19A             U19A-S           B5-W             106.00     0.0140     -1.00      -1.00      0          0
U19B             U19B-N           B5-W             54.00      0.0140     -0.50      -1.30      0          0
U6-1             U6-2             U6-3             150.00     0.0140     -3.38      -3.40      0          0
U7-1             U7-2             U7-E             208.00     0.0140     -4.40      -4.40      0          0
U11-1            U11-2            U11-3            26.50      0.0140     -3.20      -3.20      0          0
U12-1            U12-2            U12-3            35.00      0.0140     -5.00      -5.00      0          0
U20A-1           U20-2            U20-3            35.00      0.0140     -5.60      -5.60      0          0
E13-1            E13-2            U14-N            227.00     0.0140     -1.70      -1.80      0          0
SW117S-C         NC-S-9           U19A-S           2590.00    0.0140     -2.25      -2.25      0          0
SW117N-C         NC-N-8           U19B-N           5290.00    0          -4.40      -4.40      0          0
TRPK             E11-12-NW        U21-S            2640.00    0          -1.80      -1.80      0          0
C103S-C-1        U21-N            B27-W            4018.00    0.0140     -9.00      -9.00      0          0
B27              B27-W            B27-E            20.00      0.0140     -6.69      -6.69      0          0
C103S-C-2        B27-E            B28-S            1227.00    0.0140     -9.70      -9.70      0          0
B28              B28-S            B28-N            37.60      0.0340     -5.90      -5.90      0          0
C103S-C-3        B28-N            B29-W            33.00      0.0140     -8.20      -8.20      0          0
B29              B29-W            B29-E            37.60      0.0140     -6.00      -6.00      0          0
C103S-C-4        B29-E            C103-2           2265.00    0.0140     -11.10     -11.10     0          0
C103-C-1         L31-W-1          B7-W             5751.00    0.0140     -6.00      -6.00      0          0
B7               B7-W             B7-E             36.00      0.0340     -3.75      -3.75      0          0
C103-C-2         B7-E             MW13             1327.00    0.0140     -6.00      -6.00      0          0
C103-C-3         MW13             B8-W             6694.00    0.0140     -5.30      -5.30      0          0
B8               B8-W             B8-E             36.00      0.0340     -2.20      -2.20      0          0
C103-C-4         B8-E             S196-W           2309.00    0.0140     -3.10      -3.10      0          0
S196             S196-W           S196-E           58.00      0.0340     -2.50      -2.50      0          0
C103-C-5         S196-E           U20-W            288.00     0.0140     -5.80      -5.80      0          0
U20              U20-W            U20-E            60.00      0.0140     -2.50      -2.50      0          0
C103-C-6         U20-E            B9-N             5261.00    0.0140     -5.00      -5.00      0          0
B9               B9-N             B9-S             38.00      0.0340     -4.56      -4.56      0          0
C103-C-7         B9-S             B10-W            1782.00    0.0140     -4.60      -4.60      0          0
B10              B10-W            B10-E            38.20      0.0340     -4.60      -4.60      0          0
C103-C-8         B10-E            B11-W            1351.00    0.0140     -4.80      -4.80      0          0
B11              B11-W            B11-E            33.00      0.0340     -2.00      -2.00      0          0
C103-C-9         B11-E            B12-W            1481.00    0.0140     -5.10      -5.10      0          0
B12              B12-W            B12-E            38.00      0.0340     -5.05      -5.05      0          0
C103-C-10        B12-E            B13-W            3.49       0.0140     -5.30      -5.30      0          0
B13              B13-W            B13-E            44.50      0.0340     -5.30      -5.30      0          0
C103-C-11        B13-E            B14-W            2977.00    0.0140     -5.30      -5.30      0          0
B14              B14-W            B14-E            38.00      0.0340     -3.94      -3.94      0          0
C103-C-12        B14-E            S167-W           1788.00    0.0140     -4.30      -4.30      0          0
S167             S167-W           S167-E           36.00      0.0340     -0.50      -0.50      0          0
C103-C-13        S167-E           B15-N            1932.00    0.0140     -9.10      -9.10      0          0
B15              B15-N            B15-S            38.20      0.0140     -6.70      -6.70      0          0
C103-C-14        B15-S            B16-W            587.00     0.0140     -7.40      -7.40      0          0
B16              B16-W            B16-E            36.00      0          -6.06      -6.06      0          0
C103-C-15        B16-E            C103-1           3389.00    0.0140     -8.30      -8.30      0          0
C103-C-16        Node_103         Node_1176929     5814.00    0.0140     -9.80      -9.80      0          0
B20              B20-N            B20-S            63.20      0          -6.24      -6.24      0          0
C103-C-17        B20-S            C103-2           1129.00    0          -7.90      -7.90      0          0
B22              B22-W            B22-E            90.70      0.0140     -13.70     -13.70     0          0
C103-C-19        B22-E            B23-W            2642.00    0.0140     -12.70     -12.70     0          0
B23              B23-W            B23-E            78.50      0.0140     -11.45     -11.45     0          0
C103-C-20        B23-E            C103-3           3468.00    0          -12.90     -12.90     0          0
C103-C-21        C103-3           S179-W           1154.00    0          -13.00     -13.00     0          0
C103-C-22        S179-E           B24-W-MW07       752.00     0.0140     -15.40     -15.40     0          0
B24              B24-W-MW07       B24-E            112.90     0.0140     -12.02     -12.02     0          0
C103-C-23        B24-E            B25-W            5656.00    0.0140     -13.30     -13.30     0          0