;; SWMM5 .inp converted from XPSWMM .xp file
;; Generated by XPSWMM Card Reader
;; Source format: XP_CARD | Original title: NEWBERG DRAINAGE MASTER PLAN 1998

[TITLE]
;;Project Title/Notes
NEWBERG DRAINAGE MASTER PLAN 1998

[OPTIONS]
FLOW_UNITS           CFS
INFILTRATION         HORTON
FLOW_ROUTING         DYNWAVE
LINK_OFFSETS         DEPTH
MIN_SLOPE            0.0
ALLOW_PONDING        NO
SKIP_STEADY_STATE    NO
ROUTING_STEP         00:00:300
VARIABLE_STEP        0.75
INERTIAL_DAMPING     PARTIAL
NORMAL_FLOW_LIMITED  BOTH
MAX_TRIALS           50
HEAD_TOLERANCE       0.0033

[JUNCTIONS]
;;Name           Elev       MaxDepth   InitDepth  SurDepth   Aponded
;;-------------- ---------- ---------- ---------- ---------- ----------
5750             159.00     0          0          0          0
5805             179.00     0          0          0          0
5810             198.00     0          0          0          0
5820             171.00     0          0          0          0
5830             196.00     0          0          0          0
5840             206.00     0          0          0          0
5845             190.10     0          0          0          0
5865             202.80     0          0          0          0
5880             215.80     0          0          0          0
5890             212.60     0          0          0          0
5895             210.00     0          0          0          0
5925             229.00     0          0          0          0
5935             231.40     0          0          0          0
5960             236.00     0          0          0          0
5965             237.00     0          0          0          0
5980             262.00     0          0          0          0
6025             163.10     0          0          0          0
6100             188.00     0          0          0          0
6110             196.30     0          0          0          0
6120             195.00     0          0          0          0
6130             198.50     0          0          0          0
6140             208.40     0          0          0          0
6040             190.80     0          0          0          0
6200             176.40     0          0          0          0
6220             231.00     0          0          0          0
6225             226.00     0          0          0          0
6254             234.00     0          0          0          0
6255             234.00     0          0          0          0
6270             248.00     0          0          0          0
6275             248.00     0          0          0          0
6320             195.00     0          0          0          0
6325             195.00     0          0          0          0
6360             201.00     0          0          0          0
6010             191.00     0          0          0          0
6605             197.00     0          0          0          0
6510             196.00     0          0          0          0
6545             262.00     0          0          0          0
6555             267.00     0          0          0          0
6580             315.20     0          0          0          0
6620             203.00     0          0          0          0
6630             285.50     0          0          0          0
6745             310.40     0          0          0          0
6760             356.90     0          0          0          0
6765             359.10     0          0          0          0
6780             403.90     0          0          0          0
6790             562.00     0          0          0          0
6720             256.50     0          0          0          0
6730             278.00     0          0          0          0
6815             252.00     0          0          0          0
6825             265.30     0          0          0          0
6830             278.00     0          0          0          0
6840             326.30     0          0          0          0
6855             439.50     0          0          0          0
6900             298.00     0          0          0          0
6901             290.00     0          0          0          0
6920             446.00     0          0          0          0
6930             324.00     0          0          0          0
6945             468.90     0          0          0          0
6950             427.00     0          0          0          0
6965             460.00     0          0          0          0
6980             506.10     0          0          0          0
6300             177.40     0          0          0          0
6370             182.40     0          0          0          0
6500             195.00     0          0          0          0
6600             197.00     0          0          0          0
6705             234.00     0          0          0          0
6800             234.10     0          0          0          0
5809             192.50     0          0          0          0
5829             193.00     0          0          0          0
5835             190.10     0          0          0          0
5838             190.30     0          0          0          0
5839             206.00     0          0          0          0
5855             189.00     0          0          0          0
5860             194.50     0          0          0          0
5875             204.00     0          0          0          0
5879             206.00     0          0          0          0
5885             206.00     0          0          0          0
5888             211.00     0          0          0          0
5889             212.00     0          0          0          0
5909             194.50     0          0          0          0
5910             200.00     0          0          0          0
5930             231.00     0          0          0          0
5945             232.00     0          0          0          0
5955             236.00     0          0          0          0
5964             237.00     0          0          0          0
5975             261.00     0          0          0          0
6097             164.00     0          0          0          0
6098             178.00     0          0          0          0
6099             178.00     0          0          0          0
6109             188.00     0          0          0          0
6118             196.30     0          0          0          0
6119             195.00     0          0          0          0
6123             198.50     0          0          0          0
6124             197.10     0          0          0          0
6125             197.10     0          0          0          0
6129             197.20     0          0          0          0
6139             205.00     0          0          0          0
6035             173.90     0          0          0          0
6039             173.00     0          0          0          0
6208             174.00     0          0          0          0
6209             204.00     0          0          0          0
6210             220.00     0          0          0          0
6215             234.00     0          0          0          0
6219             232.00     0          0          0          0
6239             227.50     0          0          0          0
6240             228.00     0          0          0          0
6245             232.80     0          0          0          0
6310             178.90     0          0          0          0
6350             179.40     0          0          0          0
6355             182.00     0          0          0          0
6000             159.60     0          0          0          0
6004             164.00     0          0          0          0
6005             190.00     0          0          0          0
6530             260.00     0          0          0          0
6540             260.00     0          0          0          0
6550             267.00     0          0          0          0
6575             315.20     0          0          0          0
6625             285.50     0          0          0          0
6739             256.50     0          0          0          0
6740             299.50     0          0          0          0
6755             356.90     0          0          0          0
6764             358.00     0          0          0          0
6775             403.90     0          0          0          0
6729             270.00     0          0          0          0
6850             439.50     0          0          0          0
6915             446.00     0          0          0          0
6940             468.90     0          0          0          0
6960             460.00     0          0          0          0
6975             506.10     0          0          0          0
6020             159.60     0          0          0          0
6400             195.00     0          0          0          0
6700             219.60     0          0          0          0
6810             256.10     0          0          0          0
1064             234.10     0          0          0          0
5740             158.00     0          0          0          0

[CONDUITS]
;;Name           From             To               Length     Roughness  InOffset   OutOffset  InitFlow   MaxFlow
;;-------------- ---------------- ---------------- ---------- ---------- ---------- ---------- ---------- ----------
L5805            Node_5805        Node_12291057    326.00     0.0500     163.00     151.50     0          0
L5809            Node_5809        Node_12951229    106.80     0.0130     190.50     177.00     0          0
L5820            Node_5820        Node_12311229    292.00     0.0500     168.00     163.00     0          0
L5829            Node_5829        Node_12961231    60.00      0.0130     187.00     168.00     0          0
L5830            Node_5830        Node_12321296    68.20      0.0130     191.68     188.00     0          0
L5835            Node_5835        Node_12971231    289.00     0.0500     175.60     168.00     0          0
L5838            Node_5838        Node_12981297    28.90      0.0130     185.00     176.00     0          0
L5839            Node_5839        Node_12991298    165.10     0.0130     201.50     185.60     0          0
L5840            Node_5840        Node_12331299    35.30      0.0130     201.60     201.50     0          0
L5855            Node_5855        Node_13001234    267.00     0.0500     185.00     176.50     0          0
L5860            Node_5860        Node_13011300    65.60      0.0240     190.00     185.00     0          0
L5865            Node_5865        Node_12351301    158.60     0.0130     193.00     190.00     0          0
L5875            Node_5875        Node_13021235    92.40      0.0130     197.70     195.50     0          0
L5879            Node_5879        Node_13031302    29.00      0.0130     199.00     197.70     0          0
L5880            Node_5880        Node_12361303    258.80     0.0130     211.00     199.00     0          0
L5885            Node_5885        Node_13041235    83.40      0.0130     197.45     195.50     0          0
L5888            Node_5888        Node_13051304    130.00     0.0130     204.80     198.00     0          0
L5889            Node_5889        Node_13061305    50.40      0.0130     208.00     205.00     0          0
L5890            Node_5890        Node_12371306    120.00     0.0130     209.00     208.00     0          0
L5895            Node_5895        Node_12381304    96.60      0.0130     204.00     197.45     0          0
L5909            Node_5909        Node_13071301    31.00      0.0240     190.90     190.00     0          0
L5910            Node_5910        Node_13081307    101.20     0.0240     194.00     190.90     0          0
L5925            Node_5925        Node_12391308    1566.30    0.0250     226.00     194.00     0          0
L5930            Node_5930        Node_13091239    137.90     0.0130     228.00     226.00     0          0
L5945            Node_5945        Node_13101240    62.00      0.0130     228.80     228.40     0          0
L5975            Node_5975        Node_13131242    1481.80    0.0250     259.00     234.00     0          0
L5980            Node_5980        Node_12431313    40.10      0.0200     260.00     259.00     0          0
L6097            Node_6097        Node_13141244    67.30      0.0130     157.20     154.90     0          0
L6098            Node_6098        Node_13151314    206.60     0.0130     169.99     157.20     0          0
L6099            Node_6099        Node_13161315    272.20     0.0130     173.83     169.99     0          0
L6100            Node_6100        Node_12451316    149.40     0.0130     177.80     174.70     0          0
L6109            Node_6109        Node_13171245    35.20      0.0130     178.10     177.90     0          0
L6110            Node_6110        Node_12461317    211.80     0.0130     184.56     178.10     0          0
L6118            Node_6118        Node_13181246    18.20      0.0130     187.84     184.56     0          0
L6119            Node_6119        Node_13191318    114.90     0.0130     188.50     187.84     0          0
L6120            Node_6120        Node_12471319    281.50     0.0130     190.00     188.50     0          0
L6123            Node_6123        Node_13201246    301.40     0.0130     189.18     185.00     0          0
L6124            Node_6124        Node_13211320    93.70      0.0130     189.90     189.28     0          0
L6125            Node_6125        Node_13221321    113.60     0.0130     191.80     190.00     0          0
L6129            Node_6129        Node_13231322    17.00      0.0130     192.24     192.08     0          0
L6130            Node_6130        Node_12481323    79.80      0.0130     193.00     192.24     0          0
L6139            Node_6139        Node_13241248    241.10     0.0130     197.40     194.00     0          0
L6140            Node_6140        Node_12491324    395.70     0.0130     199.87     197.65     0          0
L6039            Node_6039        Node_13261325    55.70      0.0130     163.00     162.00     0          0
L6040            Node_6040        Node_12501326    125.60     0.0130     185.07     163.10     0          0
L5208            Node_5208        Node_13271251    282.40     0.0250     172.00     164.50     0          0
L6209            Node_6209        Node_13281327    647.30     0.0250     202.00     172.00     0          0
L6210            Node_6210        Node_13291328    251.40     0.0250     210.00     202.00     0          0
L6215            Node_6215        Node_13301329    44.00      0.0130     214.00     212.00     0          0
L6219            Node_6219        Node_13311330    484.70     0.0130     219.00     215.00     0          0
L6320            Node_6320        Node_12581335    512.20     0.0250     191.10     167.00     0          0
L6325            Node_6325        Node_12591258    58.40      0.0200     192.00     191.10     0          0
L6355            Node_6355        Node_13371336    68.60      0.0250     176.00     169.00     0          0
L6360            Node_6360        Node_12601337    171.40     0.0130     195.22     176.00     0          0
L6005            Node_6005        Node_13401339    485.40     0.0250     185.66     157.20     0          0
L6010            Node_6010        Node_12611340    36.00      0.0130     186.19     185.66     0          0
L6630            Node_6630        Node_12681345    56.50      0.0130     283.00     281.00     0          0
L6540            Node_6540        Node_13421341    43.40      0.0130     258.00     257.00     0          0
L6545            Node_6545        Node_12641342    521.10     0.0250     260.00     258.00     0          0
L6550            Node_6550        Node_13431341    536.50     0.0250     264.00     257.00     0          0
L6575            Node_6575        Node_13441265    935.20     0.0250     310.00     265.00     0          0
L6580            Node_6580        Node_12661344    47.70      0.0130     312.00     311.00     0          0
L6625            Node_6625        Node_13451267    1175.60    0.0250     280.00     196.00     0          0
L6740            Node_6740        Node_13471346    854.90     0.0500     294.00     250.00     0          0
L6745            Node_6745        Node_12691347    430.10     0.0250     304.90     294.00     0          0
L6755            Node_6755        Node_13481269    836.20     0.0500     344.20     304.90     0          0
L6764            Node_6764        Node_13491347    760.20     0.0500     355.60     294.00     0          0
L6765            Node_6765        Node_12711349    40.10      0.0250     357.00     355.60     0          0
L6775            Node_6775        Node_13501271    272.80     0.0500     388.00     357.00     0          0
L6790            Node_6790        Node_12731272    837.30     0.0250     560.00     398.00     0          0
L6729            Node_6729        Node_13511274    182.40     0.0130     256.60     255.00     0          0
L6730            Node_6730        Node_12751351    216.50     0.0130     273.00     256.60     0          0
L6825            Node_6825        Node_12771276    218.00     0.0250     252.00     244.00     0          0
L6830            Node_6830        Node_12781276    604.60     0.0250     252.00     244.00     0          0
L6840            Node_6840        Node_12791277    991.00     0.0500     313.00     252.00     0          0
L6850            Node_6850        Node_13521279    935.70     0.0500     434.00     313.00     0          0
L6900            Node_6900        Node_12811277    963.00     0.0500     286.00     252.00     0          0
L6901            Node_6901        Node_12821281    100.00     0.1000     287.00     286.00     0          0
L6915            Node_6915        Node_13531281    964.60     0.0500     436.00     286.00     0          0
L6930            Node_6930        Node_12841281    599.00     0.0500     312.00     286.00     0          0
L6940            Node_6940        Node_13541284    831.00     0.0500     453.20     312.00     0          0
L6950            Node_6950        Node_12861284    1109.00    0.0500     420.00     312.00     0          0
L6960            Node_6960        Node_13551286    245.00     0.0500     450.00     420.00     0          0
L6965            Node_6965        Node_12871355    83.70      0.0130     458.00     450.00     0          0
L6975            Node_6975        Node_13561287    412.50     0.0250     502.10     458.00     0          0
1470.1           Node_1036        Node_13381057    118.40     0.0500     151.80     151.50     0          0
L1038            Node_1038        Node_12441357    159.10     0.0500     154.50     153.50     0          0
L1040            Node_1040        Node_13251244    857.70     0.0500     162.00     154.50     0          0
L1042            Node_1042        Node_12511325    204.70     0.0500     164.50     162.00     0          0
L1044            Node_1044        Node_12891251    460.80     0.0500     165.50     164.50     0          0
L1046            Node_1046        Node_13351289    277.30     0.0500     167.00     165.50     0          0
L1048            Node_1048        Node_13361335    615.90     0.0500     169.00     167.00     0          0
L1050            Node_1050        Node_12901336    440.10     0.0500     172.00     169.00     0          0
L1052            Node_1052        Node_13581290    299.30     0.0500     177.00     172.00     0          0
L1054            Node_1054        Node_12631291    415.60     0.0500     180.50     178.70     0          0
L1056            Node_1056        Node_12921263    955.50     0.0500     190.00     180.50     0          0
L1058            Node_1058        Node_12671292    483.60     0.0500     196.00     190.00     0          0
L1060            Node_1060        Node_13591267    586.20     0.0500     203.50     196.00     0          0
L1062            Node_1062        Node_12931359    338.10     0.0500     229.50     203.50     0          0
L1068            Node_1068        Node_13461274    54.90      0.0500     252.00     250.00     0          0
L1070            Node_1070        Node_12941359    814.10     0.0500     218.00     203.50     0          0
L1072            Node_1072        Node_13601294    601.70     0.0500     240.00     218.00     0          0
L6004            Node_6004        Node_13391338    125.00     0.0250     157.20     152.00     0          0
L5955            Node_5955        Node_13111310    338.80     0.0250     231.20     229.00     0          0
L1066            Node_1066        Node_12741492    888.70     0.0500     250.00     229.60     0          0
L1064            Node_1064        Node_14921293    822.60     0.0500     229.60     229.50     0          0
L1034            Node_1034        Node_10571495    857.10     0.0500     151.50     147.00     0          0
DIVERSION        ?                Node_12551330    100.00     0.0140     228.75     215.50     0          0

[WEIRS]
;;Name           From             To               Type       CrestHt    Qcoeff     Gated    EndCon   EndCoeff   Surcharge
;;-------------- ---------------- ---------------- ---------- ---------- ---------- -------- -------- ---------- ----------
L5810 P          L6810 WEIR       Node_12301295    TRANSVERSE 196.00     1.840      NO       0        0          YES
1371.1           Node_5845        Node_12341297    TRANSVERSE 177.50     1.840      NO       0        0          YES
L5935 D          L5935 WEIR       Node_12401309    TRANSVERSE 230.30     1.840      NO       0        0          YES
L5960 C          L5960 WEIR       Node_12411311    TRANSVERSE 234.00     1.840      NO       0        0          YES
L5964 P          L5964            Node_13121241    TRANSVERSE 234.50     1.840      NO       0        0          YES
L5965 C          L5965 WEIR       Node_12421312    TRANSVERSE 235.00     1.840      NO       0        0          YES
L6220 P          L6220 WEIR       Node_12521331    TRANSVERSE 225.25     1.840      NO       0        0          YES
L6225 P          L6225 WEIR       Node_12531330    TRANSVERSE 220.50     1.840      NO       0        0          YES
L6239 P          L6239 WEIR       Node_13321253    TRANSVERSE 223.90     1.840      NO       0        0          YES
L6238 P          L6240 WEIR       Node_13331332    TRANSVERSE 224.50     1.840      NO       0        0          YES
L6245 15"        L6245 WEIR       Node_13341333    TRANSVERSE 225.25     1.840      NO       0        0          YES
L6254 15"        L6254 WEIR       Node_12541334    TRANSVERSE 227.50     1.840      NO       0        0          YES
L6255 16"P       L6255 WEIR       Node_12551254    TRANSVERSE 228.75     1.840      NO       0        0          YES
L6270 P          L6270 WEIR       Node_12561255    TRANSVERSE 230.25     1.840      NO       0        0          YES
L6275 P          L6275 WEIR       Node_12571256    TRANSVERSE 231.50     1.840      NO       0        0          YES
L6605 P          L6605 WEIR       Node_12621292    TRANSVERSE 194.00     1.840      NO       0        0          YES
L6530 P          L6530 WEIR       Node_13411263    TRANSVERSE 257.50     1.840      NO       0        0          YES
L6555 C          L6555            Node_12651343    TRANSVERSE 266.50     1.840      NO       0        0          YES
L6760 18"        Node_6760        Node_12701348    TRANSVERSE 356.90     1.840      NO       0        0          YES
L6780 C          6780 WEIR        Node_12721350    TRANSVERSE 403.40     1.840      NO       0        0          YES
L6855 12"        L6855 WEIR       Node_12801352    TRANSVERSE 439.50     1.840      NO       0        0          YES
L6920 15"        L6920 WEIR       Node_12831353    TRANSVERSE 446.00     1.840      NO       0        0          YES
L6945 C          L6945 WEIR       Node_12851354    TRANSVERSE 463.50     1.840      NO       0        0          YES
L6980 C          L6980            Node_12881356    TRANSVERSE 504.00     1.840      NO       0        0          YES
L6020            L6021            L6020 WEIR       TRANSVERSE 153.20     1.840      NO       0        0          YES
L6500 60"        Node_6500        Node_12911358    TRANSVERSE 195.00     1.840      NO       0        0          YES
L6815 36"        L6815 WEIR       Node_12761360    TRANSVERSE 247.00     1.840      NO       0        0          YES

[XSECTIONS]
;;Link           Shape        Geom1      Geom2      Geom3      Geom4      Barrels
;;-------------- ------------ ---------- ---------- ---------- ---------- ----------
L5805            IRREGULAR    0          0          0          0          1
L5809            CIRCULAR     1.00       0          0          0          1
L5820            IRREGULAR    0          0          0          0          1
L5829            CIRCULAR     1.00       0          0          0          1
L5830            CIRCULAR     1.00       0          0          0          1
L5835            IRREGULAR    0          0          0          0          1
L5838            CIRCULAR     1.00       0          0          0          1
L5839            CIRCULAR     1.00       0          0          0          1
L5840            CIRCULAR     1.00       0          0          0          1
L5855            IRREGULAR    0          0          0          0          1
L5860            CIRCULAR     3.00       0          0          0          1
L5865            CIRCULAR     1.25       0          0          0          1
L5875            CIRCULAR     1.25       0          0          0          1
L5879            CIRCULAR     1.00       0          0          0          1
L5880            CIRCULAR     1.00       0          0          0          1
L5885            CIRCULAR     1.25       0          0          0          1
L5888            CIRCULAR     1.00       0          0          0          1
L5889            CIRCULAR     1.00       0          0          0          1
L5890            CIRCULAR     1.00       0          0          0          1
L5895            CIRCULAR     1.00       0          0          0          1
L5909            CIRCULAR     3.00       0          0          0          1
L5910            CIRCULAR     3.00       0          0          0          1
L5925            TRAPEZOIDAL  3.00       1.00       0          0          1
L5930            CIRCULAR     2.00       0          0          0          1
L5945            CIRCULAR     2.00       0          0          0          1
L5975            TRAPEZOIDAL  2.00       1.00       0          0          1
L5980            CIRCULAR     1.50       0          0          0          1
L6097            CIRCULAR     1.75       0          0          0          1
L6098            CIRCULAR     1.75       0          0          0          1
L6099            CIRCULAR     2.00       0          0          0          1
L6100            CIRCULAR     1.75       0          0          0          1
L6109            CIRCULAR     2.00       0          0          0          1
L6110            CIRCULAR     1.75       0          0          0          1
L6118            CIRCULAR     1.75       0          0          0          1
L6119            CIRCULAR     1.75       0          0          0          1
L6120            CIRCULAR     1.50       0          0          0          1
L6123            CIRCULAR     1.50       0          0          0          1
L6124            CIRCULAR     1.75       0          0          0          1
L6125            CIRCULAR     1.75       0          0          0          1
L6129            CIRCULAR     1.25       0          0          0          1
L6130            CIRCULAR     1.25       0          0          0          1
L6139            CIRCULAR     1.25       0          0          0          1
L6140            CIRCULAR     1.25       0          0          0          1
L6039            CIRCULAR     1.00       0          0          0          1
L6040            CIRCULAR     1.00       0          0          0          1
L5208            TRAPEZOIDAL  2.00       1.00       0          0          1
L6209            TRAPEZOIDAL  2.00       1.00       0          0          1
L6210            TRAPEZOIDAL  2.00       1.00       0          0          1
L6215            CIRCULAR     1.50       0          0          0          1
L6219            CIRCULAR     1.25       0          0          0          1
L6320            IRREGULAR    0          1.00       0          0          1
L6325            CIRCULAR     1.50       0          0          0          1
L6355            TRAPEZOIDAL  2.00       1.00       0          0          1
L6360            CIRCULAR     1.00       0          0          0          1
L6005            TRAPEZOIDAL  2.00       1.00       0          0          1
L6010            CIRCULAR     1.00       0          0          0          1
L6630            CIRCULAR     1.00       0          0          0          1
L6540            CIRCULAR     1.50       0          0          0          1
L6545            TRAPEZOIDAL  2.00       1.00       0          0          1
L6550            TRAPEZOIDAL  3.00       1.00       0          0          1
L6575            TRAPEZOIDAL  2.00       1.00       0          0          1
L6580            CIRCULAR     1.25       0          0          0          1
L6625            TRAPEZOIDAL  2.00       1.00       0          0          1
L6740            IRREGULAR    0          1.00       0          0          1
L6745            IRREGULAR    0          1.00       0          0          1
L6755            IRREGULAR    0          1.00       0          0          1
L6764            IRREGULAR    0          1.00       0          0          1
L6765            IRREGULAR    2.00       1.00       0          0          1
L6775            IRREGULAR    0          1.00       0          0          1