;; SWMM5 .inp converted from XPSWMM .xp file
;; Generated by XPSWMM Card Reader
;; Source format: XP_CARD | Original title: CAiCE Visual Hydro US Unit Default Database

[TITLE]
;;Project Title/Notes
CAiCE Visual Hydro US Unit Default Database

[OPTIONS]
FLOW_UNITS           CFS
INFILTRATION         HORTON
FLOW_ROUTING         DYNWAVE
LINK_OFFSETS         DEPTH
MIN_SLOPE            0.0
ALLOW_PONDING        NO
SKIP_STEADY_STATE    NO
ROUTING_STEP         00:00:60
VARIABLE_STEP        0.75
INERTIAL_DAMPING     PARTIAL
NORMAL_FLOW_LIMITED  BOTH
HEAD_TOLERANCE       0.0033

[JUNCTIONS]
;;Name           Elev       MaxDepth   InitDepth  SurDepth   Aponded
;;-------------- ---------- ---------- ---------- ---------- ----------
10001            779.01     0          0          0          0
10002            777.55     0          0          0          0
10003            777.54     0          0          0          0
10004            781.02     0          0          0          0
10005            784.07     0          0          0          0
10006            784.46     0          0          0          0
10007            785.46     0          0          0          0
10008            781.90     0          0          0          0
10009            783.27     0          0          0          0
10010            784.27     0          0          0          0
10011            784.73     0          0          0          0
10012            786.92     0          0          0          0
10013            787.65     0          0          0          0
10014            784.15     0          0          0          0
10015            874.00     0          0          0          0
10016            788.17     0          0          0          0
10017            786.22     0          0          0          0
10018            784.72     0          0          0          0
10019            787.09     0          0          0          0
10020            791.34     0          0          0          0
10021            795.47     0          0          0          0
10022            793.84     0          0          0          0
10023            793.38     0          0          0          0
10024            793.71     0          0          0          0
10025            797.89     0          0          0          0
10026            795.00     0          0          0          0
10027            795.27     0          0          0          0
10028            802.92     0          0          0          0
10029            803.89     0          0          0          0
10030            803.79     0          0          0          0
10031            803.08     0          0          0          0
10032            802.59     0          0          0          0
10033            799.47     0          0          0          0
10034            799.00     0          0          0          0
10035            797.24     0          0          0          0
10036            794.60     0          0          0          0
10038            803.00     0          0          0          0
10039            803.00     0          0          0          0
10040            803.00     0          0          0          0
10041            803.00     0          0          0          0
10042            803.00     0          0          0          0
10043            795.00     0          0          0          0
10044            796.90     0          0          0          0
10045            796.00     0          0          0          0
10046            797.00     0          0          0          0
20002            774.00     0          0          0          0
20003            777.15     0          0          0          0
20004            778.09     0          0          0          0
20005            781.00     0          0          0          0
20006            778.13     0          0          0          0
20007            777.50     0          0          0          0
20008            782.00     0          0          0          0
20009            784.00     0          0          0          0
20010            787.00     0          0          0          0
20011            790.00     0          0          0          0
20012            789.08     0          0          0          0
20013            791.10     0          0          0          0
20014            790.00     0          0          0          0
20015            800.00     0          0          0          0
20016            797.28     0          0          0          0
20017            793.20     0          0          0          0
20018            793.20     0          0          0          0
20019            793.50     0          0          0          0
20020            795.40     0          0          0          0
20021            797.29     0          0          0          0
20022            797.98     0          0          0          0
20023            799.69     0          0          0          0
20024            800.29     0          0          0          0
20025            795.00     0          0          0          0
20026            794.60     0          0          0          0
20027            795.50     0          0          0          0
20028            798.70     0          0          0          0
20029            802.00     0          0          0          0
20030            804.50     0          0          0          0
20031            806.00     0          0          0          0
20032            806.77     0          0          0          0
20033            806.47     0          0          0          0
20034            807.17     0          0          0          0
20035            807.87     0          0          0          0
20036            807.53     0          0          0          0
20037            807.87     0          0          0          0
20038            808.78     0          0          0          0
20039            812.00     0          0          0          0
20040            812.35     0          0          0          0
20041            811.91     0          0          0          0
20042            801.00     0          0          0          0
20043            800.31     0          0          0          0
20044            805.36     0          0          0          0
20045            810.21     0          0          0          0
20046            783.30     0          0          0          0
20047            786.05     0          0          0          0
20048            788.46     0          0          0          0
20049            782.85     0          0          0          0
20050            790.00     0          0          0          0
20051            790.00     0          0          0          0
20052            790.00     0          0          0          0
20053            790.00     0          0          0          0
20054            790.00     0          0          0          0
20055            803.00     0          0          0          0
20056            803.00     0          0          0          0
20057            803.00     0          0          0          0
20058            804.50     0          0          0          0
20059            805.00     0          0          0          0
20060            813.00     0          0          0          0
20061            813.50     0          0          0          0
20063            817.00     0          0          0          0
20064            820.00     0          0          0          0
20065            823.75     0          0          0          0
20066            823.90     0          0          0          0
20067            796.68     0          0          0          0
20068            793.88     0          0          0          0
20069            793.41     0          0          0          0
20070            798.30     0          0          0          0
20071            800.37     0          0          0          0
20072            801.27     0          0          0          0
20073            801.83     0          0          0          0
20074            801.88     0          0          0          0
20075            802.00     0          0          0          0
20076            797.32     0          0          0          0
20077            798.73     0          0          0          0
20078            797.31     0          0          0          0
20079            799.28     0          0          0          0
20080            802.68     0          0          0          0
20081            802.29     0          0          0          0
20082            800.00     0          0          0          0
20083            799.30     0          0          0          0
20084            798.33     0          0          0          0
20085            798.28     0          0          0          0
20086            801.20     0          0          0          0
20087            802.05     0          0          0          0
20088            803.21     0          0          0          0
20089            803.21     0          0          0          0
20090            802.41     0          0          0          0
20091            800.64     0          0          0          0
20092            800.18     0          0          0          0
20093            798.78     0          0          0          0
20094            798.30     0          0          0          0
20095            800.02     0          0          0          0
20096            797.00     0          0          0          0
20097            799.06     0          0          0          0
20098            800.29     0          0          0          0
20100            800.59     0          0          0          0
20101            801.62     0          0          0          0
20102            796.70     0          0          0          0
20103            802.17     0          0          0          0
20104            804.60     0          0          0          0
20105            795.87     0          0          0          0
20106            803.45     0          0          0          0
20107            804.48     0          0          0          0
20108            800.42     0          0          0          0
20109            800.50     0          0          0          0
20110            805.00     0          0          0          0
20111            804.40     0          0          0          0
20112            803.70     0          0          0          0
20113            807.55     0          0          0          0
20114            805.30     0          0          0          0
20115            805.49     0          0          0          0
20116            806.05     0          0          0          0
20117            804.66     0          0          0          0
20118            803.70     0          0          0          0
20119            804.40     0          0          0          0
20120            803.70     0          0          0          0
20121            803.30     0          0          0          0
20122            802.06     0          0          0          0
20123            800.20     0          0          0          0
20124            797.74     0          0          0          0
20125            803.94     0          0          0          0
20126            804.00     0          0          0          0
20127            804.80     0          0          0          0
20128            805.50     0          0          0          0
20129            806.14     0          0          0          0
20130            803.50     0          0          0          0
20131            807.00     0          0          0          0
20132            807.00     0          0          0          0
20133            805.50     0          0          0          0
20134            806.14     0          0          0          0
20135            806.20     0          0          0          0
20136            806.90     0          0          0          0
20137            802.00     0          0          0          0
20138            804.90     0          0          0          0
20139            802.33     0          0          0          0
20140            804.80     0          0          0          0
20141            806.60     0          0          0          0
20142            807.10     0          0          0          0
20143            807.90     0          0          0          0
20144            806.27     0          0          0          0
20145            806.85     0          0          0          0
20146            808.00     0          0          0          0
20147            808.00     0          0          0          0
20148            791.65     0          0          0          0
20149            807.50     0          0          0          0
20150            806.50     0          0          0          0
20151            804.90     0          0          0          0
20152            803.75     0          0          0          0
20153            802.80     0          0          0          0
20154            803.11     0          0          0          0
20155            803.64     0          0          0          0
20156            804.18     0          0          0          0
20157            804.22     0          0          0          0
20158            804.86     0          0          0          0
20159            806.50     0          0          0          0
20160            806.65     0          0          0          0
20161            807.30     0          0          0          0
20162            807.72     0          0          0          0
20163            802.00     0          0          0          0
20164            799.50     0          0          0          0
20165            802.00     0          0          0          0
20166            795.29     0          0          0          0
20167            796.46     0          0          0          0
20168            805.42     0          0          0          0
20169            802.17     0          0          0          0
20170            805.32     0          0          0          0
20171            802.12     0          0          0          0
20172            805.27     0          0          0          0
20173            805.58     0          0          0          0
20174            806.70     0          0          0          0
20175            809.69     0          0          0          0
20176            806.99     0          0          0          0
20177            805.54     0          0          0          0
20178            801.10     0          0          0          0
20179            800.70     0          0          0          0
20180            802.10     0          0          0          0
20181            802.57     0          0          0          0
20182            801.10     0          0          0          0
20183            799.60     0          0          0          0
20184            801.10     0          0          0          0
20185            800.54     0          0          0          0
20186            798.66     0          0          0          0
20187            797.37     0          0          0          0
20188            795.70     0          0          0          0
20189            795.70     0          0          0          0
20190            803.00     0          0          0          0
20191            800.10     0          0          0          0
20192            797.20     0          0          0          0
20193            805.30     0          0          0          0
20194            809.70     0          0          0          0
20195            801.00     0          0          0          0
20196            808.72     0          0          0          0
20197            796.00     0          0          0          0
20198            798.80     0          0          0          0
20199            789.50     0          0          0          0
20200            790.40     0          0          0          0
20201            790.60     0          0          0          0
20202            800.30     0          0          0          0
20203            790.00     0          0          0          0
20204            786.00     0          0          0          0
20205            786.00     0          0          0          0
20206            786.80     0          0          0          0
20207            786.80     0          0          0          0
20208            786.80     0          0          0          0
20209            786.80     0          0          0          0
20210            786.50     0          0          0          0
20211            797.73     0          0          0          0
20212            787.00     0          0          0          0
20213            787.50     0          0          0          0
20214            788.00     0          0          0          0
20215            788.00     0          0          0          0
20216            788.00     0          0          0          0
20217            787.51     0          0          0          0
20218            814.00     0          0          0          0
20219            801.33     0          0          0          0
20220            800.08     0          0          0          0
20221            787.10     0          0          0          0
30001            780.76     0          0          0          0
30002            786.48     0          0          0          0
30003            790.80     0          0          0          0
30004            783.14     0          0          0          0
30005            795.50     0          0          0          0
30006            792.82     0          0          0          0
30007            794.12     0          0          0          0
30008            793.13     0          0          0          0
30009            798.22     0          0          0          0
30010            799.83     0          0          0          0
30011            800.25     0          0          0          0
30012            798.61     0          0          0          0
30013            799.20     0          0          0          0
30014            787.32     0          0          0          0
30015            798.87     0          0          0          0
30016            804.27     0          0          0          0
30017            805.31     0          0          0          0
30018            805.56     0          0          0          0
30019            806.85     0          0          0          0
30020            809.77     0          0          0          0
30021            810.00     0          0          0          0
30022            809.82     0          0          0          0
30023            793.00     0          0          0          0
30024            798.67     0          0          0          0
30025            797.00     0          0          0          0
30026            806.00     0          0          0          0
30027            792.95     0          0          0          0
30028            797.00     0          0          0          0
30029            798.00     0          0          0          0
30030            801.00     0          0          0          0
30031            804.00     0          0          0          0
30032            804.50     0          0          0          0
30033            804.50     0          0          0          0
30034            792.00     0          0          0          0
30035            796.50     0          0          0          0
30036            797.00     0          0          0          0
30037            794.00     0          0          0          0
30038            798.00     0          0          0          0
30039            794.00     0          0          0          0
30040            797.00     0          0          0          0
30041            796.50     0          0          0          0
30042            797.00     0          0          0          0
30043            798.30     0          0          0          0
30044            788.52     0          0          0          0
30045            793.25     0          0          0          0
30046            801.97     0          0          0          0
30047            801.97     0          0          0          0
30048            805.91     0          0          0          0
30049            793.62     0          0          0          0
30050            798.13     0          0          0          0
30051            800.93     0          0          0          0
30052            803.50     0          0          0          0
30053            805.30     0          0          0          0
30054            805.20     0          0          0          0
30055            803.92     0          0          0          0
30056            804.70     0          0          0          0
30057            806.20     0          0          0          0
30058            805.90     0          0          0          0
30060            803.00     0          0          0          0
30061            804.00     0          0          0          0
30062            804.00     0          0          0          0
30063            802.00     0          0          0          0
30064            801.80     0          0          0          0
30065            802.50     0          0          0          0
30066            800.90     0          0          0          0
30067            802.38     0          0          0          0
30068            801.20     0          0          0          0
30069            803.90     0          0          0          0
30070            803.20     0          0          0          0
30071            801.00     0          0          0          0
30072            804.10     0          0          0          0
30073            802.00     0          0          0          0
30074            802.00     0          0          0          0
30075            805.00     0          0          0          0
30076            810.50     0          0          0          0
30077            812.40     0          0          0          0
30078            791.60     0          0          0          0
30079            796.60     0          0          0          0
30080            795.10     0          0          0          0
30081            794.00     0          0          0          0
30082            796.40     0          0          0          0
30083            794.30     0          0          0          0
30084            795.70     0          0          0          0
30085            798.00     0          0          0          0
30086            798.50     0          0          0          0
30087            803.80     0          0          0          0
30088            799.70     0          0          0          0
30089            802.50     0          0          0          0
30090            801.70     0          0          0          0
30091            801.80     0          0          0          0
30092            804.90     0          0          0          0
30093            795.00     0          0          0          0
30094            796.70     0          0          0          0
30095            798.25     0          0          0          0
30096            799.00     0          0          0          0
30097            792.00     0          0          0          0
30098            794.50     0          0          0          0
30099            803.00     0          0          0          0
30100            809.50     0          0          0          0
30101            810.00     0          0          0          0
30102            797.24     0          0          0          0
30103            802.17     0          0          0          0
30104            806.53     0          0          0          0
30105            799.00     0          0          0          0
30106            801.50     0          0          0          0
30107            796.50     0          0          0          0
30108            796.70     0          0          0          0
30109            804.80     0          0          0          0
30110            814.70     0          0          0          0
30111            814.10     0          0          0          0
30112            795.51     0          0          0          0
30113            801.60     0          0          0          0
30114            816.00     0          0          0          0
30115            816.00     0          0          0          0
30116            814.40     0          0          0          0
30117            796.00     0          0          0          0
30118            797.00     0          0          0          0
30119            797.50     0          0          0          0
30120            798.50     0          0          0          0
30121            797.20     0          0          0          0
30122            799.00     0          0          0          0
30123            801.20     0          0          0          0
30124            801.20     0          0          0          0
30125            800.60     0          0          0          0
30126            801.10     0          0          0          0
30127            801.10     0          0          0          0
30128            799.90     0          0          0          0
30129            800.10     0          0          0          0
30130            798.70     0          0          0          0
30131            802.40     0          0          0          0
30132            798.00     0          0          0          0
30133            797.00     0          0          0          0
30134            808.00     0          0          0          0
30135            817.00     0          0          0          0
30136            814.00     0          0          0          0
30137            812.00     0          0          0          0
30138            799.17     0          0          0          0
30139            806.82     0          0          0          0
30140            817.14     0          0          0          0
30141            817.01     0          0          0          0
30142            815.96     0          0          0          0
30143            796.51     0          0          0          0
30144            798.95     0          0          0          0
30145            798.50     0          0          0          0
30146            797.60     0          0          0          0
30147            801.28     0          0          0          0
30148            803.11     0          0          0          0
30149            804.80     0          0          0          0
30150            796.61     0          0          0          0
30151            797.57     0          0          0          0
30152            800.18     0          0          0          0
30153            804.76     0          0          0          0
30154            804.67     0          0          0          0
30155            799.00     0          0          0          0
30156            802.31     0          0          0          0
30157            803.08     0          0          0          0
30158            807.36     0          0          0          0
30159            807.50     0          0          0          0
30160            808.60     0          0          0          0
30161            815.00     0          0          0          0
30162            815.00     0          0          0          0
30163            815.00     0          0          0          0
30164            820.00     0          0          0          0
30165            820.00     0          0          0          0
30166            817.00     0          0          0          0
30167            820.00     0          0          0          0
30168            817.00     0          0          0          0
30169            815.00     0          0          0          0
30170            815.00     0          0          0          0
30171            815.00     0          0          0          0
30172            803.50     0          0          0          0
30173            794.40     0          0          0          0
30174            808.90     0          0          0          0
30175            803.00     0          0          0          0
30176            810.00     0          0          0          0
30177            803.00     0          0          0          0
30178            797.70     0          0          0          0
30179            799.00     0          0          0          0
30180            798.30     0          0          0          0
30181            797.70     0          0          0          0
30182            797.60     0          0          0          0
30183            800.10     0          0          0          0
30184            800.80     0          0          0          0
30185            804.50     0          0          0          0
30186            801.00     0          0          0          0
30188            800.76     0          0          0          0
30189            801.10     0          0          0          0
30190            800.20     0          0          0          0
30191            802.30     0          0          0          0
30192            801.50     0          0          0          0
30193            802.30     0          0          0          0
30194            797.20     0          0          0          0
30195            800.50     0          0          0          0
30196            802.66     0          0          0          0
30197            799.00     0          0          0          0
30198            800.00     0          0          0          0
30199            804.30     0          0          0          0
30200            801.80     0          0          0          0
30201            803.40     0          0          0          0
30203            802.50     0          0          0          0
30204            801.80     0          0          0          0