;; SWMM5 .inp converted from XPSWMM .xp file
;; Generated by XPSWMM Card Reader
;; Source format: XP_CARD | Original title: WANAMAKER BASIN

[TITLE]
;;Project Title/Notes
WANAMAKER BASIN

[OPTIONS]
FLOW_UNITS           CFS
INFILTRATION         HORTON
FLOW_ROUTING         DYNWAVE
LINK_OFFSETS         DEPTH
MIN_SLOPE            0.0
ALLOW_PONDING        NO
SKIP_STEADY_STATE    NO
ROUTING_STEP         00:00:60
VARIABLE_STEP        0.75
INERTIAL_DAMPING     PARTIAL
NORMAL_FLOW_LIMITED  BOTH
MAX_TRIALS           30
HEAD_TOLERANCE       0.0033

[JUNCTIONS]
;;Name           Elev       MaxDepth   InitDepth  SurDepth   Aponded
;;-------------- ---------- ---------- ---------- ---------- ----------
212              970.00     0          0          0          0
200              960.00     0          0          0          0
187              949.00     0          0          0          0
186              948.00     0          0          0          0
181              944.50     0          0          0          0
176              944.00     0          0          0          0
171              942.00     0          0          0          0
170              940.50     0          0          0          0
166              940.00     0          0          0          0
165              938.00     0          0          0          0
161              940.00     0          0          0          0
155              938.00     0          0          0          0
154              934.00     0          0          0          0
147              931.00     0          0          0          0
146              929.00     0          0          0          0
141              926.00     0          0          0          0
137              931.80     0          0          0          0
125              931.20     0          0          0          0
120              932.00     0          0          0          0
118              930.00     0          0          0          0
117              929.60     0          0          0          0
115              931.00     0          0          0          0
111              931.00     0          0          0          0
105              930.00     0          0          0          0
100              930.00     0          0          0          0
336              960.00     0          0          0          0
335              960.00     0          0          0          0
315              933.00     0          0          0          0
312              928.00     0          0          0          0
306              919.00     0          0          0          0
305              918.00     0          0          0          0
428              949.00     0          0          0          0
503              938.00     0          0          0          0
501              938.00     0          0          0          0
620              970.00     0          0          0          0
130              931.80     0          0          0          0

[STORAGE]
;;Name           Elev       MaxDepth   InitDepth  Shape      Curve/Params
;;-------------- ---------- ---------- ---------- ---------- ----------
188              960.00     -6.50      0          FUNCTIONAL 0 0          0

[CONDUITS]
;;Name           From             To               Length     Roughness  InOffset   OutOffset  InitFlow   MaxFlow
;;-------------- ---------------- ---------------- ---------- ---------- ---------- ---------- ---------- ----------
21224            212              200              1174.00    0.0150     960.40     950.30     0          0
20050            200              188              1261.00    0.0150     950.30     936.50     0          0
18789            188              187              64.00      0.0150     936.50     935.20     0          0
18725            187              186              91.00      0.0150     935.20     934.50     0          0
18634            186              181              442.00     0.0220     934.50     932.50     0          0
18192            181              176              520.00     0.0150     932.50     930.30     0          0
17672            176              171              500.00     0.0300     930.30     929.70     0          0
17172            171              170              131.00     0.0150     929.70     928.50     0          0
17401            170              166              400.00     0.0300     928.50     926.20     0          0
16641            166              165              120.00     0.0150     926.20     925.80     0          0
16521            165              161              394.00     0.0150     925.80     924.40     0          0
15527            155              154              122.00     0.0150     921.20     920.90     0          0
15405            154              147              660.00     0.0200     920.90     918.10     0          0
14745            147              146              140.00     0.0200     918.10     916.80     0          0
14605            146              141              461.00     0.0150     916.80     914.00     0          0
14144            141              137              402.00     0.0150     914.00     911.50     0          0
12500            125              120              500.00     0          905.00     903.80     0          0
12000            120              118              530.00     0          905.00     903.00     0          0
11740            118              117              40.00      0.0300     903.00     901.50     0          0
11700            117              115              200.00     0          901.50     901.50     0          0
11500            115              111              400.00     0          901.50     900.70     0          0
11100            111              105              600.00     0          900.70     900.50     0          0
10500            105              100              500.00     0          900.50     900.00     0          0
33590            336              335              50.00      0.0150     951.30     950.30     0          0
33540            335              315              1950.00    0.0350     950.30     923.00     0          0
31590            315              312              300.00     0.0150     923.00     918.00     0          0
31290            312              306              700.00     0.0350     918.00     909.00     0          0
30590            306              305              50.00      0.0150     909.00     908.00     0          0
30540            305              105              540.00     0.0350     908.00     900.50     0          0
42800            428              141              2800.00    0.0450     939.30     914.00     0          0
50350            503              501              237.00     0.0350     927.00     926.50     0          0
50113            501              155              113.00     0.0150     926.50     921.20     0          0
62000            620              166              2400.00    0.0130     964.20     926.20     0          0
13742            137              130              742.00     0.0140     911.50     907.90     0          0
13000            130              125              500.00     0          907.90     905.00     0          0
16127            161              155              600.00     0.0350     924.40     921.20     0          0

[XSECTIONS]
;;Link           Shape        Geom1      Geom2      Geom3      Geom4      Barrels
;;-------------- ------------ ---------- ---------- ---------- ---------- ----------
21224            RECT_CLOSED  5.00       9.00       0          0          1
20050            RECT_CLOSED  6.00       9.00       0          0          1
18789            RECT_CLOSED  6.00       12.00      0          0          1
18725            RECT_CLOSED  6.00       6.00       0          0          1
18634            CIRCULAR     7.00       0          0          0          1
18192            RECT_CLOSED  6.00       12.00      0          0          1
17672            TRAPEZOIDAL  12.00      20.00      0          0          1
17172            RECT_CLOSED  7.00       11.00      0          0          1
17401            TRAPEZOIDAL  12.00      20.00      0          0          1
16641            RECT_CLOSED  8.50       15.00      0          0          1
16521            RECT_CLOSED  8.00       10.00      0          0          1
15527            RECT_CLOSED  7.00       14.00      0          0          1
15405            TRAPEZOIDAL  12.00      15.00      0          0          1
14745            TRAPEZOIDAL  8.00       15.00      0          0          1
14605            RECT_CLOSED  5.00       24.00      0          0          1
14144            RECT_CLOSED  6.00       36.00      0          0          1
12500            IRREGULAR    0          0          0          0          1
12000            IRREGULAR    0          0          0          0          1
11740            RECT_CLOSED  12.00      30.00      0          0          1
11700            IRREGULAR    0          0          0          0          1
11500            IRREGULAR    0          0          0          0          1
11100            IRREGULAR    0          0          0          0          1
10500            IRREGULAR    0          0          0          0          1
33590            CIRCULAR     5.50       5.00       0          0          1
33540            TRAPEZOIDAL  7.00       8.00       0          0          1
31590            RECT_CLOSED  7.00       7.00       0          0          1
31290            TRAPEZOIDAL  8.00       9.00       0          0          1
30590            RECT_CLOSED  8.00       8.00       0          0          1
30540            TRAPEZOIDAL  8.00       9.00       0          0          1
42800            TRAPEZOIDAL  8.00       10.00      0          0          1
50350            TRAPEZOIDAL  8.00       10.00      0          0          1
50113            RECT_CLOSED  3.00       7.00       0          0          1
62000            CIRCULAR     5.00       0          0          0          1
13742            IRREGULAR    0          0          0          0          1
13000            IRREGULAR    0          0          0          0          1
16127            TRAPEZOIDAL  15.00      15.00      0          0          1

[LOSSES]
;;Link           Inlet      Outlet     Average    Flap Gate
;;-------------- ---------- ---------- ---------- ----------
21224            0          0          0          NO
20050            0          0          0          NO
18789            0          0          0          NO
18725            0          0          0          NO
18634            0          0          0          NO
18192            0          0          0          NO
17672            0          0          0          NO
17172            0          0          0          NO
17401            0          0          0          NO
16641            0          0          0          NO
16521            0          0          0          NO
15527            0          0          0          NO
15405            0          0          0          NO
14745            0          0          0          NO
14605            0          0          0          NO
14144            0          0          0          NO
12500            0          0          0          NO
12000            0          0          0          NO
11740            0          0          0          NO
11700            0          0          0          NO
11500            0          0          0          NO
11100            0          0          0          NO
10500            0          0          0          NO
33590            0          0          0          NO
33540            0          0          0          NO
31590            0          0          0          NO
31290            0          0          0          NO
30590            0          0          0          NO
30540            0          0          0          NO
42800            0          0          0          NO
50350            0          0          0          NO
50113            0          0          0          NO
62000            0          0          0          NO
13742            0          0          0          NO
13000            0          0          0          NO
16127            0          0          0          NO

[COORDINATES]
;;Node           X-Coord            Y-Coord
;;-------------- ------------------ ------------------
212              336.80             -8.94             
200              353.57             -6.40             
188              371.70             -4.63             
187              392.91             -6.42             
186              424.05             -4.94             
181              442.05             -7.01             
176              464.18             -7.14             
171              476.70             -1.45             
170              335.49             13.24             
166              356.47             18.90             
165              380.26             17.91             
161              392.02             23.90             
155              421.43             17.63             
154              433.11             21.34             
147              459.06             19.12             
146              483.93             22.13             
141              342.28             33.40             
137              361.15             40.96             
125              398.06             40.86             
120              422.81             40.87             
118              436.21             40.99             
117              461.27             33.29             
115              471.18             37.87             
111              335.57             53.27             
105              361.86             62.58             
100              372.30             52.91             
336              390.17             57.89             
335              423.31             56.67             
315              432.66             53.07             
312              461.90             53.57             
306              477.59             53.10             
305              336.74             74.73             
428              359.39             72.67             
503              375.49             77.87             
501              402.86             76.67             
620              419.29             77.27             
130              377.74             39.94             

[MAP]
DIMENSIONS 335.49 -8.94 483.93 77.87
Units      None

[REPORT]
INPUT            YES
SUBCATCHMENTS    ALL
NODES            ALL
LINKS            ALL



