;; SWMM5 .inp converted from XPSWMM .xp file
;; Generated by XPSWMM Card Reader
;; Source format: XP_CARD | Original title: FORT WAYNE CSO IMPACT CHARACT. STUDY   C:\XPS\RudSyp1.XP

[TITLE]
;;Project Title/Notes
FORT WAYNE CSO IMPACT CHARACT. STUDY   C:\XPS\RudSyp1.XP

[OPTIONS]
FLOW_UNITS           CFS
INFILTRATION         HORTON
FLOW_ROUTING         DYNWAVE
LINK_OFFSETS         DEPTH
MIN_SLOPE            0.0
ALLOW_PONDING        NO
SKIP_STEADY_STATE    NO
ROUTING_STEP         00:00:05
VARIABLE_STEP        0.75
INERTIAL_DAMPING     PARTIAL
NORMAL_FLOW_LIMITED  BOTH
MAX_TRIALS           50

[JUNCTIONS]
;;Name           Elev       MaxDepth   InitDepth  SurDepth   Aponded
;;-------------- ---------- ---------- ---------- ---------- ----------
0                763.20     0          0          0          0
0                765.00     0          0          0          0
0                754.97     0          0          0          0
0                756.60     0          0          0          0
0                756.59     0          0          0          0
0                755.80     0          0          0          0
0                758.20     0          0          0          0
0                754.57     0          0          0          0
0                755.08     0          0          0          0
0                757.20     0          0          0          0
0                755.60     0          0          0          0
0                755.50     0          0          0          0
0                766.30     0          0          0          0
0                766.71     0          0          0          0
0                770.60     0          0          0          0
0                784.10     0          0          0          0
0                767.30     0          0          0          0
0                754.00     0          0          0          0
0                770.85     0          0          0          0
0                768.50     0          0          0          0
0                747.50     0          0          0          0
0                747.50     0          0          0          0
0                747.00     0          0          0          0
0                747.03     0          0          0          0
0                754.80     0          0          0          0
0                749.00     0          0          0          0
0                749.30     0          0          0          0
0                749.50     0          0          0          0
0                750.00     0          0          0          0
0                745.10     0          0          0          0
0                750.00     0          0          0          0
0                745.00     0          0          0          0
0                748.00     0          0          0          0
0                749.13     0          0          0          0
0                750.00     0          0          0          0
0                751.00     0          0          0          0
0                753.50     0          0          0          0
0                760.00     0          0          0          0
0                760.00     0          0          0          0
0                745.00     0          0          0          0
0                761.74     0          0          0          0
0                778.00     0          0          0          0
0                766.20     0          0          0          0
0                762.60     0          0          0          0
0                756.20     0          0          0          0
0                766.10     0          0          0          0
0                766.00     0          0          0          0
0                755.30     0          0          0          0
0                765.07     0          0          0          0
0                764.00     0          0          0          0
0                762.50     0          0          0          0
0                763.00     0          0          0          0
0                765.00     0          0          0          0
0                765.00     0          0          0          0
0                758.10     0          0          0          0
0                752.10     0          0          0          0
0                760.00     0          0          0          0
0                775.01     0          0          0          0
0                771.60     0          0          0          0
0                773.26     0          0          0          0
0                754.10     0          0          0          0
0                753.30     0          0          0          0
0                753.20     0          0          0          0
0                763.00     0          0          0          0
0                745.50     0          0          0          0
0                775.00     0          0          0          0
0                776.00     0          0          0          0
0                776.40     0          0          0          0
0                764.00     0          0          0          0
0                771.50     0          0          0          0
0                763.50     0          0          0          0
0                780.50     0          0          0          0
0                766.00     0          0          0          0
0                759.00     0          0          0          0
0                760.00     0          0          0          0
0                765.00     0          0          0          0
0                775.00     0          0          0          0
0                774.50     0          0          0          0
0                775.50     0          0          0          0
0                787.00     0          0          0          0
0                797.00     0          0          0          0
0                787.00     0          0          0          0
0                798.00     0          0          0          0
0                799.50     0          0          0          0
0                802.50     0          0          0          0
0                802.50     0          0          0          0
0                800.50     0          0          0          0
0                740.50     0          0          0          0
0                784.80     0          0          0          0
0                783.00     0          0          0          0
0                783.00     0          0          0          0
0                782.90     0          0          0          0
0                814.00     0          0          0          0
0                789.00     0          0          0          0
0                763.00     0          0          0          0
0                764.50     0          0          0          0
0                760.50     0          0          0          0
0                757.50     0          0          0          0
0                798.00     0          0          0          0
0                789.50     0          0          0          0
0                774.00     0          0          0          0
0                826.00     0          0          0          0
0                817.00     0          0          0          0
0                779.15     0          0          0          0
0                768.00     0          0          0          0
0                774.00     0          0          0          0
0                767.90     0          0          0          0
0                763.00     0          0          0          0
0                759.50     0          0          0          0
0                757.00     0          0          0          0
0                757.50     0          0          0          0
0                770.70     0          0          0          0
0                753.30     0          0          0          0
0                773.42     0          0          0          0
0                772.39     0          0          0          0
0                775.14     0          0          0          0
0                762.26     0          0          0          0
0                762.26     0          0          0          0
0                774.00     0          0          0          0
0                813.00     0          0          0          0
0                760.60     0          0          0          0
0                762.30     0          0          0          0
0                762.90     0          0          0          0
0                740.10     0          0          0          0
0                746.00     0          0          0          0
0                744.60     0          0          0          0
0                759.10     0          0          0          0
0                765.30     0          0          0          0
0                774.50     0          0          0          0
0                767.00     0          0          0          0
0                774.60     0          0          0          0
0                825.00     0          0          0          0
0                820.00     0          0          0          0
0                765.50     0          0          0          0
0                768.50     0          0          0          0
0                846.10     0          0          0          0
0                776.00     0          0          0          0
0                764.00     0          0          0          0
0                769.50     0          0          0          0
0                770.00     0          0          0          0
0                765.60     0          0          0          0
0                764.50     0          0          0          0
0                774.50     0          0          0          0
0                768.93     0          0          0          0
0                768.93     0          0          0          0
0                768.93     0          0          0          0
0                768.93     0          0          0          0
0                768.93     0          0          0          0
0                780.00     0          0          0          0
0                780.00     0          0          0          0
0                780.00     0          0          0          0
0                780.00     0          0          0          0
0                780.00     0          0          0          0
0                756.00     0          0          0          0
0                756.00     0          0          0          0
0                760.00     0          0          0          0
0                760.00     0          0          0          0
0                760.00     0          0          0          0
0                760.00     0          0          0          0
0                760.00     0          0          0          0
0                760.00     0          0          0          0
0                760.00     0          0          0          0
0                760.00     0          0          0          0
0                760.00     0          0          0          0
0                753.07     0          0          0          0
0                760.00     0          0          0          0
0                780.00     0          0          0          0
0                780.00     0          0          0          0
0                780.00     0          0          0          0
0                785.00     0          0          0          0
0                783.00     0          0          0          0
0                783.00     0          0          0          0
0                780.00     0          0          0          0
0                780.00     0          0          0          0
0                780.00     0          0          0          0
0                787.00     0          0          0          0
0                750.00     0          0          0          0
0                750.00     0          0          0          0
0                750.00     0          0          0          0
0                760.00     0          0          0          0
0                760.00     0          0          0          0
0                760.00     0          0          0          0
0                760.00     0          0          0          0
0                760.00     0          0          0          0
0                753.07     0          0          0          0
0                753.07     0          0          0          0
0                758.00     0          0          0          0
0                763.20     0          0          0          0
0                755.50     0          0          0          0
0                755.50     0          0          0          0
0                756.80     0          0          0          0
0                755.00     0          0          0          0
0                752.40     0          0          0          0
0                760.00     0          0          0          0
0                755.00     0          0          0          0
0                756.70     0          0          0          0
0                755.80     0          0          0          0
0                755.00     0          0          0          0
0                755.00     0          0          0          0
0                755.00     0          0          0          0
0                758.00     0          0          0          0
0                758.00     0          0          0          0
0                756.59     0          0          0          0
0                758.00     0          0          0          0
0                758.20     0          0          0          0
0                750.00     0          0          0          0
0                763.20     0          0          0          0
0                763.20     0          0          0          0
0                763.20     0          0          0          0
0                763.20     0          0          0          0
0                755.50     0          0          0          0
0                755.50     0          0          0          0
0                755.00     0          0          0          0
0                752.40     0          0          0          0
0                755.00     0          0          0          0
0                755.00     0          0          0          0
0                755.00     0          0          0          0
0                755.00     0          0          0          0
0                763.11     0          0          0          0
0                763.90     0          0          0          0
0                762.80     0          0          0          0
0                763.00     0          0          0          0
0                762.00     0          0          0          0
0                763.00     0          0          0          0
0                776.25     0          0          0          0
0                758.00     0          0          0          0
0                763.70     0          0          0          0
0                760.74     0          0          0          0
0                764.74     0          0          0          0
0                765.00     0          0          0          0
0                760.80     0          0          0          0
0                776.00     0          0          0          0
0                762.00     0          0          0          0
0                760.00     0          0          0          0
0                761.00     0          0          0          0
0                763.00     0          0          0          0
0                763.00     0          0          0          0
0                776.00     0          0          0          0
0                758.00     0          0          0          0
0                758.00     0          0          0          0
0                758.00     0          0          0          0
0                758.00     0          0          0          0
0                754.00     0          0          0          0
0                754.00     0          0          0          0
0                754.00     0          0          0          0
0                754.00     0          0          0          0
0                759.57     0          0          0          0
0                754.00     0          0          0          0
0                751.00     0          0          0          0
0                851.00     0          0          0          0
0                822.00     0          0          0          0
0                785.50     0          0          0          0
0                786.00     0          0          0          0
0                787.50     0          0          0          0
0                784.00     0          0          0          0
0                798.90     0          0          0          0
0                779.50     0          0          0          0
0                781.00     0          0          0          0
0                774.70     0          0          0          0
0                799.57     0          0          0          0
0                831.00     0          0          0          0
0                819.50     0          0          0          0
0                826.50     0          0          0          0
0                806.70     0          0          0          0
0                812.00     0          0          0          0
0                804.06     0          0          0          0
0                802.04     0          0          0          0
0                775.00     0          0          0          0
0                775.40     0          0          0          0
0                774.00     0          0          0          0
0                780.00     0          0          0          0
0                763.00     0          0          0          0
0                750.00     0          0          0          0
0                745.00     0          0          0          0
0                748.00     0          0          0          0
0                742.00     0          0          0          0
0                756.00     0          0          0          0
0                756.00     0          0          0          0
0                755.25     0          0          0          0
0                760.00     0          0          0          0
0                750.00     0          0          0          0
0                765.00     0          0          0          0
0                747.00     0          0          0          0
0                751.00     0          0          0          0
0                747.00     0          0          0          0
0                747.00     0          0          0          0
0                747.00     0          0          0          0
0                756.08     0          0          0          0
0                756.00     0          0          0          0
0                766.30     0          0          0          0
0                768.00     0          0          0          0
0                759.00     0          0          0          0
0                756.00     0          0          0          0
0                758.00     0          0          0          0
0                758.00     0          0          0          0
0                755.25     0          0          0          0
0                760.00     0          0          0          0
0                760.00     0          0          0          0
0                772.00     0          0          0          0
0                784.00     0          0          0          0
0                765.00     0          0          0          0
0                774.00     0          0          0          0
0                772.00     0          0          0          0
0                766.50     0          0          0          0
0                766.50     0          0          0          0
0                770.00     0          0          0          0
0                765.00     0          0          0          0
0                764.00     0          0          0          0
0                764.00     0          0          0          0
0                760.71     0          0          0          0
0                760.62     0          0          0          0
0                760.76     0          0          0          0
0                789.43     0          0          0          0
0                760.00     0          0          0          0
0                760.00     0          0          0          0
0                795.00     0          0          0          0
0                793.00     0          0          0          0
0                797.00     0          0          0          0
0                796.00     0          0          0          0
0                796.00     0          0          0          0
0                796.00     0          0          0          0
0                752.30     0          0          0          0
0                785.00     0          0          0          0
0                785.00     0          0          0          0
0                777.50     0          0          0          0
0                775.00     0          0          0          0
0                755.67     0          0          0          0
0                748.71     0          0          0          0
0                759.07     0          0          0          0
0                751.50     0          0          0          0
0                751.00     0          0          0          0
0                752.29     0          0          0          0
0                748.32     0          0          0          0
0                749.63     0          0          0          0
0                748.57     0          0          0          0
0                760.07     0          0          0          0
0                752.00     0          0          0          0
0                760.00     0          0          0          0
0                754.15     0          0          0          0
0                755.18     0          0          0          0
0                763.60     0          0          0          0
0                756.30     0          0          0          0
0                756.40     0          0          0          0
0                764.80     0          0          0          0
0                778.40     0          0          0          0
0                764.20     0          0          0          0
0                764.40     0          0          0          0
0                762.60     0          0          0          0
0                761.60     0          0          0          0
0                760.00     0          0          0          0
0                760.00     0          0          0          0
0                760.00     0          0          0          0
0                760.00     0          0          0          0
0                760.00     0          0          0          0
0                760.00     0          0          0          0
0                751.00     0          0          0          0
0                751.00     0          0          0          0
0                751.00     0          0          0          0
0                751.00     0          0          0          0
0                751.00     0          0          0          0
0                753.00     0          0          0          0
0                753.00     0          0          0          0
0                753.00     0          0          0          0
0                753.00     0          0          0          0
0                753.00     0          0          0          0
0                753.00     0          0          0          0
0                755.80     0          0          0          0
0                755.80     0          0          0          0
0                755.80     0          0          0          0
0                755.80     0          0          0          0
0                763.33     0          0          0          0
0                791.00     0          0          0          0
0                793.50     0          0          0          0
0                783.90     0          0          0          0
0                794.00     0          0          0          0
0                792.50     0          0          0          0
0                810.50     0          0          0          0
0                762.00     0          0          0          0
0                763.25     0          0          0          0
0                750.07     0          0          0          0
0                750.07     0          0          0          0
0                755.20     0          0          0          0
0                767.90     0          0          0          0
0                747.07     0          0          0          0

[STORAGE]
;;Name           Elev       MaxDepth   InitDepth  Shape      Curve/Params
;;-------------- ---------- ---------- ---------- ---------- ----------
0                750.00     0          0          FUNCTIONAL 295.00 0          0
0                747.00     -5.05      0          FUNCTIONAL 444.00 0          0
0                758.00     0          0          FUNCTIONAL 289.00 0          0
0                758.00     0          0          FUNCTIONAL 97.00 0          0
0                754.00     0          0          FUNCTIONAL 1660.00 0          0
0                747.00     0          0          FUNCTIONAL 800.00 0          0
0                775.00     -1.00      0          FUNCTIONAL 247.00 0          0
0                763.25     0          0          FUNCTIONAL 896.00 0          0

[CONDUITS]
;;Name           From             To               Length     Roughness  InOffset   OutOffset  InitFlow   MaxFlow
;;-------------- ---------------- ---------------- ---------- ---------- ---------- ---------- ---------- ----------
261              0                0                27.46      0.0140     735.67     735.66     0          0
264              0                0                285.81     0.0140     737.53     737.29     0          0
402              0                0                40.00      0.0140     731.72     728.68     0          0
404              0                0                840.69     0.0140     728.68     728.58     0          0
471              0                0                424.76     0.0140     725.97     725.92     0          0
505              0                0                505.36     0.0140     721.49     721.33     0          0
506              0                0                339.63     0.0140     721.33     721.23     0          0
499              0                0                230.42     0.0140     721.19     721.11     0          0
508              0                0                65.39      0.0140     721.23     721.19     0          0
510              0                0                18.68      0.0140     721.11     721.05     0          0
493              0                0                534.57     0.0140     721.70     721.60     0          0
573              0                0                125.72     0.0140     732.00     729.70     0          0
758              0                0                104.65     0.0140     746.40     746.33     0          0
791              0                0                194.31     0.0140     750.75     750.69     0          0
1010LN26202      0                0                130.10     0.0140     763.79     762.51     0          0
1393LJ38005      0                0                471.47     0.0140     796.44     795.80     0          0
1485LI18031      0                0                119.36     0.0140     771.18     771.12     0          0
2066LP30001      0                0                737.28     0.0140     745.42     745.00     0          0
2602LS06003      0                0                300.57     0.0140     723.79     723.42     0          0
2995LReg8-1      0                0                100.00     0.0140     754.18     754.14     0          0
2993LReg8-W1     0                0                100.00     0.0140     754.17     750.00     0          0
2992LReg8-OR1    0                0                199.91     0.0140     752.01     729.56     0          0
3006LReg11-1     0                0                100.00     0.0140     761.61     761.57     0          0
3004LReg11-W1    0                0                100.00     0.0140     761.57     760.00     0          0
3003LReg11-OR1   0                0                128.32     0.0140     759.57     731.34     0          0
3016LReg3-OR1    0                0                8.18       0.0140     736.47     734.67     0          0
3037LReg12C-W1   0                0                39.00      0.0140     745.77     745.73     0          0
3035LReg12COR1   0                0                25.95      0.0140     745.77     740.06     0          0
3039LL06112      0                0                900.00     0.0140     746.22     745.77     0          0
3050LReg14-OR1   0                0                100.00     0.0140     734.15     734.07     0          0
3051LReg15-OR1   0                0                11.18      0.0140     732.60     730.14     0          0
3046LReg15-2     0                0                100.00     0.0140     739.85     739.81     0          0
3045LReg15-1     0                0                5.00       0.0140     739.81     739.81     0          0
3047LReg15-W1    0                0                100.00     0.0140     739.81     739.77     0          0
544              0                0                3142.00    0.0140     744.48     732.00     0          0
3127Reg31-DIV    0                0                361.00     0.0140     775.98     770.00     0          0
3138LReg30-1     0                0                100.00     0.0140     762.71     762.67     0          0