;; SWMM5 .inp converted from XPSWMM .xp file
;; Generated by XPSWMM Card Reader
;; Source format: XP_CARD | Original title: Berkeley Storm Drain Model

[TITLE]
;;Project Title/Notes
Berkeley Storm Drain Model

[OPTIONS]
FLOW_UNITS           CFS
INFILTRATION         HORTON
FLOW_ROUTING         DYNWAVE
LINK_OFFSETS         DEPTH
MIN_SLOPE            0.0
ALLOW_PONDING        NO
SKIP_STEADY_STATE    NO
ROUTING_STEP         00:00:03
VARIABLE_STEP        0.75
INERTIAL_DAMPING     NONE
NORMAL_FLOW_LIMITED  BOTH
MAX_TRIALS           30

[JUNCTIONS]
;;Name           Elev       MaxDepth   InitDepth  SurDepth   Aponded
;;-------------- ---------- ---------- ---------- ---------- ----------
ST0001           243.70     0          0          0          0
ST0002           248.20     0          0          0          0
ST0003           225.00     0          0          0          0
ST0004           240.63     0          0          0          0
ST0005           253.25     0          0          0          0
ST0006           262.17     0          0          0          0
ST0007           272.13     0          0          0          0
ST0008           229.75     0          0          0          0
ST0009           234.60     0          0          0          0
ST0010           227.20     0          0          0          0
ST0011           255.80     0          0          0          0
ST0012           218.09     0          0          0          0
ST0013           210.36     0          0          0          0
SK0064           39.60      0          0          0          0
SK0065           32.50      0          0          0          0
SK0066           27.17      0          0          0          0
SK0067           21.85      0          0          0          0
SK0068           18.75      0          0          0          0
SK0069           11.15      0          0          0          0
SK0070           10.30      0          0          0          0
SK0071           8.10       0          0          0          0
SK0072           -1.00      0          0          0          0
SK0073           40.29      0          0          0          0
SK0074           33.40      0          0          0          0
SK0075           27.65      0          0          0          0
SK0076           22.39      0          0          0          0
SK0077           6.59       0          0          0          0
SK0078           7.04       0          0          0          0
SK0079           7.46       0          0          0          0
SK0080           7.70       0          0          0          0
SK0081           14.72      0          0          0          0
SK0083           8.00       0          0          0          0
SK0084           46.25      0          0          0          0
ST0017           57.70      0          0          0          0
SK0085           58.30      0          0          0          0
ST0018           63.75      0          0          0          0
ST0019           72.95      0          0          0          0
ST0020           79.87      0          0          0          0
ST0021           92.70      0          0          0          0
ST0022           106.00     0          0          0          0
SK0086           49.00      0          0          0          0
SK0087           57.80      0          0          0          0
SK0089           72.87      0          0          0          0
SK0090           73.60      0          0          0          0
SK0091           78.73      0          0          0          0
SK0092           90.00      0          0          0          0
SK0095           72.00      0          0          0          0
SK0096           87.75      0          0          0          0
SK0098           46.92      0          0          0          0
SK0099           47.47      0          0          0          0
ST0023           63.11      0          0          0          0
SK0100           48.05      0          0          0          0
SK0101           54.46      0          0          0          0
SK0102           65.24      0          0          0          0
SK0103           57.80      0          0          0          0
SK0104           72.20      0          0          0          0
SK0105           71.44      0          0          0          0
ST0024           57.70      0          0          0          0
ST0025           106.23     0          0          0          0
ST0027           120.80     0          0          0          0
ST0028           121.62     0          0          0          0
ST0029           127.20     0          0          0          0
ST0030           131.10     0          0          0          0
ST0031           135.90     0          0          0          0
ST0032           141.50     0          0          0          0
ST0033           147.50     0          0          0          0
ST0034           153.47     0          0          0          0
ST0035           103.98     0          0          0          0
ST0036           105.90     0          0          0          0
ST0037           109.10     0          0          0          0
ST0038           107.00     0          0          0          0
ST0039           107.95     0          0          0          0
ST0040           104.93     0          0          0          0
ST0041           104.80     0          0          0          0
ST0042           104.52     0          0          0          0
ST0043           105.50     0          0          0          0
ST0044           106.41     0          0          0          0
ST0045           108.90     0          0          0          0
ST0046           105.11     0          0          0          0
ST0047           165.00     0          0          0          0
ST0048           181.25     0          0          0          0
ST0049           187.53     0          0          0          0
ST0050           189.40     0          0          0          0
ST0052           201.70     0          0          0          0
ST0053           153.80     0          0          0          0
ST0054           165.53     0          0          0          0
ST0055           182.10     0          0          0          0
SK0106           122.70     0          0          0          0
SK0107           127.88     0          0          0          0
SK0108           150.15     0          0          0          0
SK0109           154.11     0          0          0          0
SK0110           161.46     0          0          0          0
SK0111           164.60     0          0          0          0
SK0112           178.55     0          0          0          0
SK0113           181.02     0          0          0          0
SK0114           121.90     0          0          0          0
SK0115           134.49     0          0          0          0
SK0116           135.24     0          0          0          0
SK0117           142.65     0          0          0          0
SK0118           151.93     0          0          0          0
SK0119           195.00     0          0          0          0
SK0120           143.50     0          0          0          0
SK0121           116.87     0          0          0          0
SK0122           112.11     0          0          0          0
SK0123           191.73     0          0          0          0
SK0124           197.00     0          0          0          0
ST0014           11.15      0          0          0          0
ST0015           20.00      0          0          0          0
ST0016           29.50      0          0          0          0
SI0125           259.00     0          0          0          0
SI0127           210.00     0          0          0          0
SI0126           240.00     0          0          0          0
SI0129           39.60      0          0          0          0
SI0130           8.00       0          0          0          0
SI0128           -1.00      0          0          0          0
SKA082           6.54       0          0          0          0
468              91.03      0          0          0          0
470              91.00      0          0          0          0

[STORAGE]
;;Name           Elev       MaxDepth   InitDepth  Shape      Curve/Params
;;-------------- ---------- ---------- ---------- ---------- ----------
SM0056           199.00     0          0          FUNCTIONAL 100.00 0          0
SM0058           279.63     0          0          FUNCTIONAL 100.00 0          0
SM0060           19.75      0          0          FUNCTIONAL 100.00 0          0
SM0061           154.80     0          0          FUNCTIONAL 100.00 0          0
SM0063           250.20     0          0          FUNCTIONAL 100.00 0          0
SK0082           6.54       -0.04      0          FUNCTIONAL 500.00 0          0
SK0088           99.10      0          0          FUNCTIONAL 500.00 0          0
SK0093           89.70      0          0          FUNCTIONAL 500.00 0          0
SK0094           96.40      0          0          FUNCTIONAL 500.00 0          0
SK0097           93.00      0          0          FUNCTIONAL 500.00 0          0
ST0026           113.90     0          0          FUNCTIONAL 100.00 0          0
ST0051           194.20     0          0          FUNCTIONAL 100.00 0          0
SM0059           215.00     0          0          FUNCTIONAL 100.00 0          0
SM0057           250.00     -5.00      0          FUNCTIONAL 100.00 0          0
SM0062           264.00     0          0          FUNCTIONAL 100.00 0          0

[CONDUITS]
;;Name           From             To               Length     Roughness  InOffset   OutOffset  InitFlow   MaxFlow
;;-------------- ---------------- ---------------- ---------- ---------- ---------- ---------- ---------- ----------
ST0001009        ST0001           ST0009           666.00     0.0130     233.00     222.90     0          0
ST0002001        ST0002           ST0001           255.80     0.0130     238.80     233.00     0          0
ST0003012        ST0003           ST0012           245.70     0.0130     212.20     205.19     0          0
ST0004010        ST0004           ST0010           306.60     0.0130     230.50     214.77     0          0
ST0005004        ST0005           ST0004           335.90     0.0130     242.45     230.50     0          0
ST0006011        ST0006           ST0011           114.30     0.0130     251.47     245.03     0          0
ST0007006        ST0007           ST0006           106.10     0.0130     257.33     251.47     0          0
ST0008010        ST0008           ST0010           285.40     0.0130     216.75     214.77     0          0
ST0009008        ST0009           ST0008           387.90     0.0130     222.90     216.75     0          0
ST0010003        ST0010           ST0003           50.10      0.0130     214.77     212.20     0          0
ST0011005        ST0011           ST0005           45.80      0.0130     245.03     242.45     0          0
ST0012013        ST0012           ST0013           337.30     0.0130     205.19     196.89     0          0
ST0064074        SK0064           SK0074           289.50     0.0130     24.50      19.67      0          0
ST0065075        SK0065           SK0075           301.30     0.0130     18.97      14.03      0          0
ST0068081        SK0068           SK0081           343.30     0.0130     3.00       1.03       0          0
ST0070082        SK0070           SK0082           350.60     0.0130     -2.80      -3.98      0          0
ST0073064        SK0073           SK0064           32.00      0.0130     24.99      24.50      0          0
ST0074065        SK0074           SK0065           41.90      0.0130     19.67      18.97      0          0
ST0075066        SK0075           SK0066           29.80      0.0130     14.03      13.54      0          0
ST0076067        SK0076           SK0067           33.70      0.0130     8.66       8.11       0          0
ST0077078        SK0077           SK0078           341.70     0.0130     -5.24      -6.33      0          0
ST0078079        SK0078           SK0079           315.20     0.0130     -6.33      -7.34      0          0
ST0079080        SK0079           SK0080           182.00     0.0130     -7.34      -7.92      0          0
ST0080071        SK0080           SK0071           307.40     0.0130     -7.92      -8.90      0          0
ST0081069        SK0081           SK0069           304.20     0.0130     1.03       -0.72      0          0
STA082083        SKA082           SK0083           480.80     0.0130     -1.26      -6.43      0          0
ST0083072        SK0083           SK0072           151.60     0.0130     -8.43      -10.01     0          0
ST0084073        SK0084           SK0073           276.80     0.0130     29.25      24.99      0          0
ST0020019        ST0020           ST0019           328.70     0.0130     62.98      55.75      0          0
ST0021020        ST0021           ST0020           609.70     0.0130     76.40      62.98      0          0
ST0022021        ST0022           ST0021           638.90     0.0130     89.70      76.40      0          0
ST0087086        SK0087           SK0086           570.10     0.0130     46.30      38.20      0          0
ST0088094        SK0088           SK0094           147.20     0.0130     87.00      83.90      0          0
ST0089104        SK0089           SK0104           33.30      0.0130     58.30      59.65      0          0
ST0090089        SK0090           SK0089           224.20     0.0130     61.10      58.30      0          0
ST0091095        SK0091           SK0095           57.00      0.0130     64.40      63.90      0          0
ST0092096        SK0092           SK0096           148.10     0.0250     73.90      69.00      0          0
ST0093092        SK0093           SK0092           424.60     0.0130     77.20      73.90      0          0
ST0094097        SK0094           SK0097           217.70     0.0250     83.90      80.50      0          0
ST0095090        SK0095           SK0090           118.60     0.0250     63.90      61.10      0          0
ST0096091        SK0096           SK0091           160.30     0.0250     69.00      64.40      0          0
ST0097093        SK0097           SK0093           202.40     0.0250     80.50      77.20      0          0
ST0098084        SK0098           SK0084           47.20      0.0130     29.76      29.25      0          0
ST0100098        SK0100           SK0098           41.30      0.0130     30.63      29.76      0          0
ST0101100        SK0101           SK0100           291.60     0.0130     38.07      30.63      0          0
ST0104105        SK0104           SK0105           37.40      0.0130     59.65      58.80      0          0
ST0025022        ST0025           ST0022           22.00      0.0130     90.40      89.70      0          0
ST0034033        ST0034           ST0033           342.40     0.0130     140.32     135.20     0          0
ST0036043        ST0036           ST0043           63.10      0.0130     96.65      96.30      0          0
ST0037045        ST0037           ST0045           20.90      0.0130     98.50      98.38      0          0
ST0039038        ST0039           ST0038           318.70     0.0130     103.00     99.36      0          0
ST0042035        ST0042           ST0035           85.10      0.0130     95.43      94.95      0          0
ST0043042        ST0043           ST0042           154.90     0.0130     96.30      95.43      0          0
ST0044036        ST0044           ST0036           52.40      0.0130     96.94      96.65      0          0
ST0045044        ST0045           ST0044           257.30     0.0130     98.38      96.94      0          0
ST0046025        ST0046           ST0025           354.00     0.0130     92.66      90.40      0          0
ST0047053        ST0047           ST0053           641.90     0.0130     150.20     140.60     0          0
ST0048054        ST0048           ST0054           640.60     0.0130     164.25     150.66     0          0
ST0049055        ST0049           ST0055           295.90     0.0130     171.97     165.29     0          0
ST0051050        ST0051           ST0050           273.10     0.0130     186.80     175.52     0          0
ST0052051        ST0052           ST0051           274.30     0.0130     188.40     186.80     0          0
ST0053034        ST0053           ST0034           18.70      0.0130     140.60     140.32     0          0
ST0054047        ST0054           ST0047           21.50      0.0130     150.66     150.20     0          0
ST0106114        SK0106           SK0114           48.80      0.0130     107.40     106.71     0          0
ST0108120        SK0108           SK0120           263.40     0.0130     132.55     125.90     0          0
ST0109118        SK0109           SK0118           107.10     0.0130     136.27     134.22     0          0
ST0110109        SK0110           SK0109           361.20     0.0130     143.16     136.27     0          0
ST0111110        SK0111           SK0110           167.90     0.0130     147.00     143.16     0          0
ST0112111        SK0112           SK0111           689.60     0.0130     168.45     147.00     0          0
ST0114121        SK0114           SK0121           308.10     0.0130     106.71     102.36     0          0
ST0116115        SK0116           SK0115           35.20      0.0130     118.49     117.81     0          0
ST0117116        SK0117           SK0116           349.30     0.0130     125.14     118.49     0          0
ST0118108        SK0118           SK0108           87.70      0.0130     134.22     132.55     0          0
ST0120117        SK0120           SK0117           40.10      0.0130     125.90     125.14     0          0
ST0121122        SK0121           SK0122           291.40     0.0130     102.36     98.25      0          0
ST0122088        SK0122           SK0088           797.20     0.0130     98.25      87.00      0          0
ST0124119        SK0124           SK0119           55.10      0.0130     188.04     187.92     0          0
SM0013052        ST0013           ST0052           385.70     0.0130     196.89     188.40     0          0
SM0066076        SK0066           SK0076           299.40     0.0130     13.54      8.66       0          0
SM0067068        SK0067           SK0068           310.60     0.0130     8.11       3.00       0          0
SM0069070        SK0069           SK0070           286.20     0.0130     -0.72      -2.80      0          0
SM0082077        SK0082           SK0077           401.90     0.0130     -3.98      -5.24      0          0
SM0102087        SK0102           SK0087           561.60     0.0130     57.50      46.30      0          0
SM0105102        SK0105           SK0102           304.60     0.0130     58.80      51.90      0          0
SM0038037        ST0038           ST0037           343.40     0.0130     99.36      98.50      0          0
SM0040046        ST0040           ST0046           58.20      0.0130     93.03      92.66      0          0
SM0041040        ST0041           ST0040           41.70      0.0130     93.29      93.03      0          0
SM0050049        ST0050           ST0049           103.10     0.0130     175.52     171.97     0          0
SM0055048        ST0055           ST0048           50.70      0.0130     165.29     164.25     0          0
SM0107106        SK0107           SK0106           317.70     0.0130     111.88     107.40     0          0
SM0113112        SK0113           SK0112           155.50     0.0130     171.22     168.45     0          0
SM0115107        SK0115           SK0107           313.90     0.0130     117.81     111.88     0          0
SM0119123        SK0119           SK0123           170.90     0.0130     187.92     184.01     0          0
SM0123113        SK0123           SK0113           559.80     0.0130     184.01     171.22     0          0
SM0056124        SM0056           SK0124           500.00     0.0130     190.04     188.04     0          0
SM0057126        SM0057           SI0126           500.00     0.0130     230.50     230.00     0          0
SM0058007        SM0058           ST0007           500.00     0.0130     259.33     257.33     0          0
SM0059127        SM0059           SI0127           500.00     0.0130     200.50     200.00     0          0
SM0060068        SM0060           SK0068           500.00     0.0130     4.00       3.00       0          0
SM0061053        SM0061           ST0053           499.80     0.0130     141.60     140.60     0          0
SM0062125        SM0062           SI0125           500.10     0.0130     259.50     249.00     0          0
SM0063002        SM0063           ST0002           500.00     0.0130     240.80     238.80     0          0
SI0125126        SI0125           SI0126           1309.40    0.0130     249.00     230.00     0          0
SI0126127        SI0126           SI0127           1016.20    0.0130     230.00     200.00     0          0
SI0127035        SI0127           ST0035           4630.10    0.0130     200.00     94.95      0          0
SI0014130        ST0014           SI0130           698.20     0.0130     -0.72      -8.43      0          0
SI0015014        ST0015           ST0014           650.50     0.0130     12.90      -0.72      0          0
SI0016015        ST0016           ST0015           638.50     0.0130     21.90      12.90      0          0
SI0129016        SI0129           ST0016           682.50     0.0130     24.50      21.90      0          0
SI0130128        SI0130           SI0128           153.10     0.0130     -8.43      -10.01     0          0
SI0086129        SK0086           SI0129           622.10     0.0130     38.20      24.50      0          0
SI0035070        ST0035           SK0070           6614.70    0.0130     94.95      -2.80      0          0
SQ0017099        ST0017           SK0099           683.70     0.0130     38.00      30.18      0          0
SQ0085103        SK0085           SK0103           32.30      0.0260     43.40      42.88      0          0
SQ0018023        ST0018           ST0023           30.30      0.0260     47.55      47.06      0          0
SQ0019018        ST0019           ST0018           294.50     0.0130     55.75      47.55      0          0
SQ0099098        SK0099           SK0098           39.30      0.0130     30.18      29.76      0          0
SQ0023085        ST0023           SK0085           228.70     0.0130     47.06      43.40      0          0
SQ0103024        SK0103           ST0024           326.60     0.0130     42.88      39.60      0          0
SQ0024017        ST0024           ST0017           28.40      0.0130     39.60      38.00      0          0
SQ0026025        ST0026           ST0025           292.30     0.0130     97.30      90.40      0          0
SQ0027026        ST0027           ST0026           330.60     0.0130     106.90     97.30      0          0
SQ0028027        ST0028           ST0027           43.80      0.0130     107.67     106.90     0          0
SQ0029028        ST0029           ST0028           299.40     0.0130     112.90     107.67     0          0
SQ0030029        ST0030           ST0029           332.40     0.0130     117.90     112.90     0          0
SQ0031030        ST0031           ST0030           328.70     0.0130     123.70     117.90     0          0
SQ0032031        ST0032           ST0031           333.90     0.0130     129.50     123.70     0          0
SQ0033032        ST0033           ST0032           316.70     0.0130     135.20     129.50     0          0
462              ?                ?                0          0          0          0          0          0
471              ?                ?                333.00     0.0140     77.10      71.80      0          0

[WEIRS]
;;Name           From             To               Type       CrestHt    Qcoeff     Gated    EndCon   EndCoeff   Surcharge
;;-------------- ---------------- ---------------- ---------- ---------- ---------- -------- -------- ---------- ----------
MUL1             SK0082           SKA082           V-NOTCH    1.42       1.840      NO       0        0          YES
469              ?                ?                TRANSVERSE 91.03      1.840      NO       0        0          YES

[XSECTIONS]
;;Link           Shape        Geom1      Geom2      Geom3      Geom4      Barrels
;;-------------- ------------ ---------- ---------- ---------- ---------- ----------
ST0001009        CIRCULAR     2.00       0          0          0          1
ST0002001        CIRCULAR     1.75       0          0          0          1
ST0003012        HORSESHOE    4.50       3.00       0          0          1
ST0004010        RECT_CLOSED  2.00       3.00       0          0          1
ST0005004        RECT_CLOSED  2.00       3.00       0          0          1
ST0006011        RECT_CLOSED  2.00       3.00       0          0          1
ST0007006        RECT_CLOSED  2.00       3.00       0          0          1
ST0008010        CIRCULAR     2.00       0          0          0          1
ST0009008        CIRCULAR     2.00       0          0          0          1
ST0010003        RECT_CLOSED  2.00       3.00       0          0          1
ST0011005        RECT_CLOSED  2.00       3.00       0          0          1
ST0012013        HORSESHOE    4.50       3.00       0          0          1
ST0064074        HORSESHOE    7.75       5.17       0          0          1
ST0065075        HORSESHOE    7.75       5.17       0          0          1
ST0068081        CIRCULAR     7.50       0          0          0          1
ST0070082        HORSESHOE    8.50       9.00       0          0          1
ST0073064        HORSESHOE    7.75       5.17       0          0          1
ST0074065        HORSESHOE    7.75       5.17       0          0          1
ST0075066        HORSESHOE    7.75       5.17       0          0          1
ST0076067        HORSESHOE    7.75       5.17       0          0          1
ST0077078        RECT_CLOSED  8.50       9.00       0          0          1
ST0078079        RECT_CLOSED  8.50       9.00       0          0          1
ST0079080        RECT_CLOSED  8.50       9.00       0          0          1
ST0080071        RECT_CLOSED  8.50       9.00       0          0          1
ST0081069        CIRCULAR     7.50       0          0          0          1
STA082083        CIRCULAR     5.50       0          0          0          1
ST0083072        CIRCULAR     7.50       0          0          0          1
ST0084073        HORSESHOE    7.75       5.17       0          0          1
ST0020019        RECT_CLOSED  4.00       6.00       0          0          1
ST0021020        RECT_CLOSED  4.00       6.00       0          0          1
ST0022021        RECT_CLOSED  4.00       6.00       0          0          1
ST0087086        CIRCULAR     7.50       0          0          0          1
ST0088094        CIRCULAR     7.50       0          0          0          1
ST0089104        CIRCULAR     5.00       0          0          0          1
ST0090089        TRAPEZOIDAL  10.00      9.38       0          0          1
ST0091095        CIRCULAR     5.00       0          0          0          1
ST0092096        TRAPEZOIDAL  14.00      10.92      0          0          1
ST0093092        CIRCULAR     5.00       0          0          0          1
ST0094097        TRAPEZOIDAL  12.50      5.50       0          0          1
ST0095090        TRAPEZOIDAL  5.25       6.50       0          0          1
ST0096091        TRAPEZOIDAL  5.63       7.50       0          0          1
ST0097093        TRAPEZOIDAL  12.50      4.00       0          0          1
ST0098084        HORSESHOE    7.75       5.17       0          0          1
ST0100098        RECT_CLOSED  2.50       3.75       0          0          1
ST0101100        RECT_CLOSED  2.50       3.75       0          0          1
ST0104105        RECT_CLOSED  5.00       5.00       0          0          1
ST0025022        RECT_CLOSED  4.00       6.00       0          0          1
ST0034033        HORSESHOE    5.25       3.50       0          0          1
ST0036043        CIRCULAR     3.75       0          0          0          1
ST0037045        CIRCULAR     3.50       0          0          0          1
ST0039038        CIRCULAR     3.00       0          0          0          1
ST0042035        CIRCULAR     3.75       0          0          0          1
ST0043042        CIRCULAR     3.75       0          0          0          1
ST0044036        CIRCULAR     3.50       0          0          0          1
ST0045044        CIRCULAR     3.50       0          0          0          1
ST0046025        HORSESHOE    5.25       3.50       0          0          1
ST0047053        HORSESHOE    5.25       3.50       0          0          1
ST0048054        HORSESHOE    5.25       3.50       0          0          1
ST0049055        HORSESHOE    5.25       3.50       0          0          1
ST0051050        HORSESHOE    4.50       3.00       0          0          1
ST0052051        HORSESHOE    4.50       3.00       0          0          1
ST0053034        HORSESHOE    5.25       3.50       0          0          1
ST0054047        HORSESHOE    5.25       3.50       0          0          1
ST0106114        HORSESHOE    6.00       8.00       0          0          1
ST0108120        HORSESHOE    5.00       6.00       0          0          1
ST0109118        HORSESHOE    5.00       6.00       0          0          1
ST0110109        CIRCULAR     7.00       0          0          0          1
ST0111110        HORSESHOE    5.00       6.00       0          0          1
ST0112111        HORSESHOE    5.00       6.00       0          0          1
ST0114121        RECT_CLOSED  6.00       8.00       0          0          1
ST0116115        HORSESHOE    6.00       8.00       0          0          1
ST0117116        HORSESHOE    6.00       8.00       0          0          1
ST0118108        HORSESHOE    5.00       6.00       0          0          1