;; SWMM5 .inp converted from XPSWMM .xp file
;; Generated by XPSWMM Card Reader
;; Source format: XP_CARD | Original title: (none)

[TITLE]
;;Project Title/Notes
Converted from XPSWMM .xp file

[OPTIONS]
FLOW_UNITS           CMS
INFILTRATION         HORTON
FLOW_ROUTING         DYNWAVE
LINK_OFFSETS         DEPTH
MIN_SLOPE            0.0
ALLOW_PONDING        NO
SKIP_STEADY_STATE    NO
ROUTING_STEP         00:00:04
VARIABLE_STEP        0.75
INERTIAL_DAMPING     PARTIAL
NORMAL_FLOW_LIMITED  BOTH

[JUNCTIONS]
;;Name           Elev       MaxDepth   InitDepth  SurDepth   Aponded
;;-------------- ---------- ---------- ---------- ---------- ----------
0                49.00      0          0          0          0
0                48.91      0          0          0          0
0                42.50      0          0          0          0
0                42.50      0          0          0          0
0                55.00      0          0          0          0
0                52.01      0          0          0          0
0                43.50      0          0          0          0
0                42.20      0          0          0          0
0                39.00      0          0          0          0
0                39.33      0          0          0          0
0                45.36      0          0          0          0
0                43.46      0          0          0          0
0                45.45      0          0          0          0
0                42.18      0          0          0          0
0                45.12      0          0          0          0
0                43.09      0          0          0          0
0                44.68      0          0          0          0
0                47.27      0          0          0          0
0                48.62      0          0          0          0
0                46.83      0          0          0          0
0                43.41      0          0          0          0
0                48.06      0          0          0          0
0                48.26      0          0          0          0
0                42.30      0          0          0          0
0                43.11      0          0          0          0
0                42.14      0          0          0          0
0                42.64      0          0          0          0
0                43.94      0          0          0          0
0                45.96      0          0          0          0
0                42.08      0          0          0          0
0                43.80      0          0          0          0
0                48.85      0          0          0          0
0                54.16      0          0          0          0
0                46.85      0          0          0          0
0                48.24      0          0          0          0
0                46.09      0          0          0          0
0                52.00      0          0          0          0

[CONDUITS]
;;Name           From             To               Length     Roughness  InOffset   OutOffset  InitFlow   MaxFlow
;;-------------- ---------------- ---------------- ---------- ---------- ---------- ---------- ---------- ----------
201              0                0                10.00      0.0150     44.47      44.42      0          0
203              0                0                10.00      0.0150     37.75      37.50      0          0
205              0                0                133.99     0.0140     47.51      45.11      0          0
206              0                0                134.17     0.0140     45.11      44.47      0          0
207              0                0                171.38     0.0140     40.28      39.01      0          0
208              0                0                183.10     0.0140     39.01      37.72      0          0
204              0                0                139.96     0.0140     37.47      36.33      0          0
209              0                0                47.42      0.0140     36.33      36.72      0          0
202              0                0                40.12      0          44.42      44.23      0          0
219              0                0                81.31      0          40.42      40.30      0          0
220              0                0                94.04      0          40.61      40.42      0          0
221              0                0                43.75      0          42.50      42.00      0          0
222              0                0                33.04      0          40.04      40.00      0          0
223              0                0                82.38      0          42.00      40.10      0          0
224              0                0                105.55     0          40.30      40.14      0          0
225              0                0                83.29      0          41.50      40.09      0          0
226              0                0                67.57      0          44.00      43.50      0          0
227              0                0                103.51     0          45.00      42.80      0          0
228              0                0                113.39     0          43.50      41.50      0          0
229              0                0                34.10      0          40.09      40.04      0          0
230              0                0                151.98     0          44.00      39.66      0          0
231              0                0                115.85     0          45.00      44.00      0          0
232              0                0                94.31      0          39.66      39.52      0          0
233              0                0                111.32     0          40.00      39.66      0          0
234              0                0                41.88      0          39.50      39.00      0          0
235              0                0                35.54      0          40.14      40.10      0          0
236              0                0                65.79      0          40.10      40.04      0          0
237              0                0                39.87      0          42.80      42.50      0          0
238              0                0                20.68      0          39.52      39.50      0          0
239              0                0                149.39     0          40.50      40.00      0          0
240              0                0                154.93     0          45.00      40.00      0          0
241              0                0                135.76     0          51.00      45.00      0          0
242              0                0                55.38      0          44.00      43.50      0          0
243              0                0                48.52      0          44.23      44.00      0          0
244              0                0                36.13      0          43.50      42.50      0          0
206              0                0                212.97     0.0140     47.00      46.00      0          0

[XSECTIONS]
;;Link           Shape        Geom1      Geom2      Geom3      Geom4      Barrels
;;-------------- ------------ ---------- ---------- ---------- ---------- ----------
201              RECT_CLOSED  1.80       1.80       0          0          3
203              RECT_CLOSED  1.20       2.40       0          0          5
205              IRREGULAR    0          0          0          0          1
206              IRREGULAR    0          0          0          0          1
207              IRREGULAR    0          0          0          0          1
208              IRREGULAR    0          0          0          0          1
204              IRREGULAR    0          0          0          0          1
209              IRREGULAR    0          0          0          0          1
202              CIRCULAR     1.80       0          0          0          3
219              CIRCULAR     1.00       0          0          0          1
220              CIRCULAR     0.75       0          0          0          1
221              CIRCULAR     1.25       0          0          0          1
222              CIRCULAR     2.00       0          0          0          3
223              CIRCULAR     1.50       0          0          0          1
224              CIRCULAR     1.25       0          0          0          1
225              CIRCULAR     1.80       0          0          0          3
226              CIRCULAR     1.00       0          0          0          1
227              CIRCULAR     0.75       0          0          0          1
228              CIRCULAR     1.80       0          0          0          3
229              CIRCULAR     1.80       0          0          0          3
230              CIRCULAR     1.00       0          0          0          1
231              CIRCULAR     1.00       0          0          0          1
232              CIRCULAR     1.25       0          0          0          1
233              CIRCULAR     1.00       0          0          0          1
234              CIRCULAR     1.00       0          0          0          1
235              CIRCULAR     1.50       0          0          0          1
236              CIRCULAR     1.75       0          0          0          1
237              CIRCULAR     1.00       0          0          0          1
238              CIRCULAR     1.50       0          0          0          1
239              CIRCULAR     0.75       0          0          0          1
240              CIRCULAR     0.75       0          0          0          1
241              CIRCULAR     0.75       0          0          0          1
242              CIRCULAR     1.80       0          0          0          3
243              CIRCULAR     1.80       0          0          0          3
244              CIRCULAR     1.25       0          0          0          1
206              CIRCULAR     2.00       0          0          0          4

[LOSSES]
;;Link           Inlet      Outlet     Average    Flap Gate
;;-------------- ---------- ---------- ---------- ----------
201              0          0          0          NO
203              0          0          0          NO
205              0          0          0          NO
206              0          0          0          NO
207              0          0          0          NO
208              0          0          0          NO
204              0          0          0          NO
209              0          0          0          NO
202              0          0          0          NO
219              0          0          0          NO
220              0          0          0          NO
221              0          0          0          NO
222              0          0          0          NO
223              0          0          0          NO
224              0          0          0          NO
225              0          0          0          NO
226              0          0          0          NO
227              0          0          0          NO
228              0          0          0          NO
229              0          0          0          NO
230              0          0          0          NO
231              0          0          0          NO
232              0          0          0          NO
233              0          0          0          NO
234              0          0          0          NO
235              0          0          0          NO
236              0          0          0          NO
237              0          0          0          NO
238              0          0          0          NO
239              0          0          0          NO
240              0          0          0          NO
241              0          0          0          NO
242              0          0          0          NO
243              0          0          0          NO
244              0          0          0          NO
206              0          0          0          NO

[COORDINATES]
;;Node           X-Coord            Y-Coord
;;-------------- ------------------ ------------------
0                -6177204.99        293101.47         
0                -6177223.11        293146.01         
0                -6177689.27        293284.20         
0                -6177709.19        293288.66         
0                -6177216.96        292877.14         
0                -6177248.80        292997.83         
0                -6177470.00        293287.27         
0                -6177524.94        293256.55         
0                -6177825.73        293308.09         
0                -6177916.42        293288.06         
0                -6177573.78        293469.01         
0                -6177553.50        293561.16         
0                -6177368.66        293425.82         
0                -6177491.70        293312.19         
0                -6177411.45        293436.12         
0                -6177589.85        293398.25         
0                -6177379.82        293280.02         
0                -6177307.52        293509.32         
0                -6177230.68        293387.82         
0                -6177270.37        293250.39         
0                -6177460.35        293301.28         
0                -6177399.34        293105.22         
0                -6177308.05        293083.25         
0                -6177546.24        293144.17         
0                -6177575.23        293036.68         
0                -6177682.43        293241.08         
0                -6177492.70        293377.03         
0                -6177458.20        293368.30         
0                -6177330.61        293414.82         
0                -6177524.29        293235.88         
0                -6177721.90        293064.54         
0                -6177423.69        293004.45         
0                -6177340.95        292951.54         
0                -6177283.82        293196.75         
0                -6177236.10        293182.58         
0                -6177348.46        293455.77         
0                -6177043.04        293052.75         

[MAP]
DIMENSIONS -6177916.42 292877.14 -6177043.04 293561.16
Units      None

[REPORT]
INPUT            YES
SUBCATCHMENTS    ALL
NODES            ALL
LINKS            ALL



