;; SWMM5 .inp converted from XPSWMM .xp file
;; Generated by XPSWMM Card Reader
;; Source format: XP_CARD | Original title: SWMM RUNOFF-EXTRAN SIMULATIE VAN RIOOLSTELSELS, MAARTENSDIJK

[TITLE]
;;Project Title/Notes
SWMM RUNOFF-EXTRAN SIMULATIE VAN RIOOLSTELSELS, MAARTENSDIJK

[OPTIONS]
FLOW_UNITS           CMS
INFILTRATION         HORTON
FLOW_ROUTING         DYNWAVE
LINK_OFFSETS         DEPTH
MIN_SLOPE            0.0
ALLOW_PONDING        NO
SKIP_STEADY_STATE    NO
ROUTING_STEP         00:00:01
VARIABLE_STEP        0.75
INERTIAL_DAMPING     NONE
NORMAL_FLOW_LIMITED  BOTH
MAX_TRIALS           30

[JUNCTIONS]
;;Name           Elev       MaxDepth   InitDepth  SurDepth   Aponded
;;-------------- ---------- ---------- ---------- ---------- ----------
0                1.97       0          0          0          0
0                1.64       0          0          0          0
0                2.00       0          0          0          0
0                1.98       0          0          0          0
0                2.01       0          0          0          0
0                1.92       0          0          0          0
0                1.87       0          0          0          0
0                1.98       0          0          0          0
0                1.94       0          0          0          0
0                2.10       0          0          0          0
0                2.04       0          0          0          0
0                2.22       0          0          0          0
0                2.12       0          0          0          0
0                2.02       0          0          0          0
0                2.19       0          0          0          0
0                2.37       0          0          0          0
0                2.60       0          0          0          0
0                1.91       0          0          0          0
0                2.86       0          0          0          0
0                2.75       0          0          0          0
0                2.51       0          0          0          0
0                2.32       0          0          0          0
0                2.24       0          0          0          0
0                2.02       0          0          0          0
0                1.94       0          0          0          0
0                2.05       0          0          0          0
0                2.09       0          0          0          0
0                2.18       0          0          0          0
0                2.00       0          0          0          0
0                2.31       0          0          0          0
0                1.97       0          0          0          0
0                2.33       0          0          0          0
0                2.28       0          0          0          0
0                2.13       0          0          0          0
0                2.20       0          0          0          0
0                2.21       0          0          0          0
0                2.25       0          0          0          0
0                2.21       0          0          0          0
0                2.27       0          0          0          0
0                2.23       0          0          0          0
0                2.50       0          0          0          0
0                2.31       0          0          0          0
0                2.48       0          0          0          0
0                2.47       0          0          0          0
0                2.49       0          0          0          0
0                2.20       0          0          0          0
0                2.34       0          0          0          0
0                2.33       0          0          0          0
0                2.26       0          0          0          0
0                2.19       0          0          0          0
0                2.15       0          0          0          0
0                2.17       0          0          0          0
0                2.17       0          0          0          0
0                2.12       0          0          0          0
0                2.12       0          0          0          0
0                1.99       0          0          0          0
0                1.96       0          0          0          0
0                2.05       0          0          0          0
0                2.02       0          0          0          0
0                2.07       0          0          0          0
0                2.02       0          0          0          0
0                2.06       0          0          0          0
0                2.07       0          0          0          0
0                2.11       0          0          0          0
0                1.99       0          0          0          0
0                2.01       0          0          0          0
0                2.00       0          0          0          0
0                1.98       0          0          0          0
0                2.03       0          0          0          0
0                2.12       0          0          0          0
0                2.01       0          0          0          0
0                1.99       0          0          0          0
0                1.97       0          0          0          0
0                2.19       0          0          0          0
0                2.09       0          0          0          0
0                2.20       0          0          0          0
0                2.22       0          0          0          0
0                2.01       0          0          0          0
0                1.99       0          0          0          0
0                2.09       0          0          0          0
0                2.00       0          0          0          0
0                2.00       0          0          0          0
0                1.99       0          0          0          0
0                2.32       0          0          0          0
0                1.98       0          0          0          0
0                1.99       0          0          0          0
0                1.99       0          0          0          0
0                1.99       0          0          0          0
0                2.04       0          0          0          0
0                2.02       0          0          0          0
0                2.06       0          0          0          0
0                2.06       0          0          0          0
0                2.01       0          0          0          0
0                2.04       0          0          0          0
0                2.03       0          0          0          0
0                1.99       0          0          0          0
0                2.03       0          0          0          0
0                2.00       0          0          0          0
0                2.02       0          0          0          0
0                2.04       0          0          0          0
0                2.05       0          0          0          0
0                2.03       0          0          0          0
0                2.09       0          0          0          0
0                2.01       0          0          0          0
0                2.07       0          0          0          0
0                1.92       0          0          0          0
0                1.99       0          0          0          0
0                2.01       0          0          0          0
0                1.98       0          0          0          0
0                1.87       0          0          0          0
0                1.98       0          0          0          0
0                2.02       0          0          0          0
0                2.00       0          0          0          0
0                2.01       0          0          0          0
0                2.00       0          0          0          0
0                2.01       0          0          0          0
0                2.01       0          0          0          0
0                2.00       0          0          0          0
0                2.00       0          0          0          0
0                1.98       0          0          0          0
0                2.02       0          0          0          0
0                1.99       0          0          0          0
0                1.99       0          0          0          0
0                1.98       0          0          0          0
0                1.91       0          0          0          0
0                1.93       0          0          0          0
0                1.97       0          0          0          0
0                1.91       0          0          0          0
0                1.96       0          0          0          0
0                1.95       0          0          0          0
0                2.00       0          0          0          0
0                1.96       0          0          0          0
0                2.00       0          0          0          0
0                1.94       0          0          0          0
0                1.94       0          0          0          0
0                1.91       0          0          0          0
0                1.97       0          0          0          0
0                1.95       0          0          0          0
0                1.97       0          0          0          0
0                1.94       0          0          0          0
0                1.96       0          0          0          0
0                2.00       0          0          0          0
0                1.99       0          0          0          0
0                2.00       0          0          0          0
0                1.91       0          0          0          0
0                1.87       0          0          0          0
0                1.86       0          0          0          0
0                1.95       0          0          0          0
0                2.01       0          0          0          0
0                2.01       0          0          0          0
0                1.87       0          0          0          0
0                2.02       0          0          0          0
0                2.02       0          0          0          0
0                2.03       0          0          0          0
0                1.99       0          0          0          0
0                2.07       0          0          0          0
0                2.02       0          0          0          0
0                2.00       0          0          0          0
0                2.01       0          0          0          0
0                2.03       0          0          0          0
0                2.01       0          0          0          0
0                1.98       0          0          0          0
0                1.97       0          0          0          0
0                1.96       0          0          0          0
0                2.03       0          0          0          0
0                2.14       0          0          0          0
0                2.10       0          0          0          0
0                2.05       0          0          0          0
0                2.10       0          0          0          0
0                2.00       0          0          0          0
0                1.94       0          0          0          0
0                2.02       0          0          0          0
0                2.16       0          0          0          0
0                2.11       0          0          0          0
0                1.95       0          0          0          0
0                2.07       0          0          0          0
0                1.94       0          0          0          0
0                2.06       0          0          0          0
0                2.06       0          0          0          0
0                2.08       0          0          0          0
0                2.07       0          0          0          0
0                2.08       0          0          0          0
0                2.08       0          0          0          0
0                2.07       0          0          0          0
0                2.06       0          0          0          0
0                2.02       0          0          0          0
0                1.98       0          0          0          0
0                2.02       0          0          0          0
0                2.10       0          0          0          0
0                2.04       0          0          0          0
0                1.99       0          0          0          0
0                1.97       0          0          0          0
0                2.31       0          0          0          0
0                2.05       0          0          0          0
0                2.00       0          0          0          0
0                2.27       0          0          0          0
0                2.01       0          0          0          0
0                2.00       0          0          0          0
0                1.99       0          0          0          0
0                2.03       0          0          0          0
0                1.98       0          0          0          0
0                2.00       0          0          0          0
0                1.97       0          0          0          0
0                1.99       0          0          0          0
0                1.98       0          0          0          0
0                2.00       0          0          0          0
0                1.99       0          0          0          0
0                1.98       0          0          0          0
0                1.96       0          0          0          0
0                1.96       0          0          0          0
0                1.97       0          0          0          0
0                1.99       0          0          0          0
0                1.96       0          0          0          0
0                1.96       0          0          0          0
0                1.94       0          0          0          0
0                1.94       0          0          0          0
0                1.96       0          0          0          0
0                2.08       0          0          0          0
0                2.12       0          0          0          0
0                2.03       0          0          0          0
0                2.07       0          0          0          0
0                1.90       0          0          0          0
0                1.98       0          0          0          0
0                2.00       0          0          0          0
0                2.06       0          0          0          0
0                1.99       0          0          0          0
0                2.02       0          0          0          0
0                2.03       0          0          0          0
0                1.99       0          0          0          0
0                2.22       0          0          0          0
0                2.09       0          0          0          0
0                2.22       0          0          0          0
0                2.02       0          0          0          0
0                2.01       0          0          0          0
0                1.99       0          0          0          0
0                2.03       0          0          0          0
0                2.01       0          0          0          0
0                2.15       0          0          0          0
0                2.01       0          0          0          0
0                2.06       0          0          0          0
0                2.03       0          0          0          0
0                2.01       0          0          0          0
0                2.02       0          0          0          0
0                2.03       0          0          0          0
0                1.99       0          0          0          0
0                2.03       0          0          0          0
0                2.01       0          0          0          0
0                1.96       0          0          0          0
0                2.16       0          0          0          0
0                2.12       0          0          0          0
0                2.21       0          0          0          0
0                2.21       0          0          0          0
0                1.89       0          0          0          0
0                2.26       0          0          0          0
0                1.89       0          0          0          0
0                1.84       0          0          0          0
0                1.84       0          0          0          0
0                1.99       0          0          0          0
0                2.00       0          0          0          0
0                1.99       0          0          0          0
0                1.99       0          0          0          0
0                1.99       0          0          0          0
0                1.98       0          0          0          0
0                1.99       0          0          0          0
0                1.99       0          0          0          0
0                1.99       0          0          0          0
0                1.99       0          0          0          0
0                1.99       0          0          0          0
0                2.00       0          0          0          0
0                2.01       0          0          0          0
0                2.01       0          0          0          0
0                2.01       0          0          0          0
0                1.99       0          0          0          0
0                1.99       0          0          0          0
0                1.99       0          0          0          0
0                2.01       0          0          0          0
0                2.06       0          0          0          0
0                2.02       0          0          0          0
0                2.14       0          0          0          0
0                1.99       0          0          0          0
0                2.19       0          0          0          0
0                2.18       0          0          0          0
0                2.01       0          0          0          0
0                2.02       0          0          0          0
0                1.99       0          0          0          0
0                2.07       0          0          0          0
0                1.98       0          0          0          0
0                2.06       0          0          0          0
0                2.08       0          0          0          0
0                1.98       0          0          0          0
0                2.08       0          0          0          0
0                2.03       0          0          0          0
0                2.09       0          0          0          0
0                2.08       0          0          0          0
0                1.99       0          0          0          0
0                2.02       0          0          0          0
0                2.05       0          0          0          0
0                2.04       0          0          0          0
0                2.08       0          0          0          0
0                2.02       0          0          0          0
0                2.07       0          0          0          0
0                2.07       0          0          0          0
0                2.02       0          0          0          0
0                2.10       0          0          0          0
0                2.04       0          0          0          0
0                2.14       0          0          0          0
0                2.01       0          0          0          0
0                1.98       0          0          0          0
0                2.00       0          0          0          0
0                2.02       0          0          0          0
0                2.02       0          0          0          0
0                2.04       0          0          0          0
0                2.03       0          0          0          0
0                2.03       0          0          0          0
0                2.06       0          0          0          0
0                2.09       0          0          0          0
0                2.00       0          0          0          0
0                1.99       0          0          0          0
0                1.86       0          0          0          0
0                1.85       0          0          0          0
0                2.04       0          0          0          0
0                1.87       0          0          0          0
0                1.98       0          0          0          0
0                2.05       0          0          0          0
0                1.98       0          0          0          0
0                2.02       0          0          0          0
0                1.98       0          0          0          0
0                1.99       0          0          0          0
0                1.99       0          0          0          0
0                2.03       0          0          0          0
0                2.01       0          0          0          0
0                2.07       0          0          0          0
0                1.99       0          0          0          0
0                1.97       0          0          0          0
0                2.00       0          0          0          0
0                1.92       0          0          0          0
0                2.04       0          0          0          0
0                2.00       0          0          0          0
0                1.98       0          0          0          0
0                1.97       0          0          0          0
0                2.00       0          0          0          0
0                1.97       0          0          0          0
0                1.96       0          0          0          0
0                1.94       0          0          0          0
0                2.02       0          0          0          0
0                2.13       0          0          0          0
0                2.10       0          0          0          0
0                2.09       0          0          0          0
0                2.07       0          0          0          0
0                2.03       0          0          0          0
0                2.00       0          0          0          0
0                2.05       0          0          0          0
0                1.99       0          0          0          0
0                2.03       0          0          0          0
0                2.01       0          0          0          0
0                2.02       0          0          0          0
0                2.01       0          0          0          0
0                2.06       0          0          0          0
0                1.98       0          0          0          0
0                1.98       0          0          0          0
0                2.02       0          0          0          0
0                2.00       0          0          0          0
0                2.02       0          0          0          0
0                2.02       0          0          0          0
0                2.02       0          0          0          0
0                2.03       0          0          0          0
0                2.00       0          0          0          0
0                2.02       0          0          0          0
0                2.04       0          0          0          0
0                2.20       0          0          0          0
0                2.04       0          0          0          0
0                2.06       0          0          0          0
0                2.06       0          0          0          0
0                2.08       0          0          0          0
0                2.04       0          0          0          0
0                2.02       0          0          0          0
0                1.99       0          0          0          0
0                1.92       0          0          0          0
0                2.00       0          0          0          0
0                2.12       0          0          0          0
0                1.99       0          0          0          0
0                2.01       0          0          0          0
0                2.03       0          0          0          0
0                1.95       0          0          0          0
0                2.13       0          0          0          0
0                2.13       0          0          0          0
0                2.78       0          0          0          0
0                2.63       0          0          0          0
0                1.00       0          0          0          0
0                1.00       0          0          0          0
0                1.00       0          0          0          0
0                1.00       0          0          0          0

[STORAGE]
;;Name           Elev       MaxDepth   InitDepth  Shape      Curve/Params
;;-------------- ---------- ---------- ---------- ---------- ----------
0                2.18       0          0          FUNCTIONAL 2.00 0          0
0                2.27       0          0          FUNCTIONAL 2.00 0          0
0                2.25       0          0          FUNCTIONAL 2.00 0          0
0                2.10       0          0          FUNCTIONAL 2.00 0          0
0                2.15       0          0          FUNCTIONAL 2.00 0          0
0                2.03       0          0          FUNCTIONAL 2.00 0          0
0                1.64       0          0          FUNCTIONAL 2.00 0          0
0                1.65       0          0          FUNCTIONAL 7.00 0          0
0                2.03       0          0          FUNCTIONAL 3.00 0          0
0                1.98       0          0          FUNCTIONAL 3.00 0          0
0                1.97       0          0          FUNCTIONAL 3.00 0          0
0                1.87       0          0          FUNCTIONAL 3.00 0          0
0                1.87       0          0          FUNCTIONAL 3.00 0          0
0                2.03       0          0          FUNCTIONAL 2.00 0          0
0                2.05       0          0          FUNCTIONAL 2.00 0          0

[CONDUITS]
;;Name           From             To               Length     Roughness  InOffset   OutOffset  InitFlow   MaxFlow
;;-------------- ---------------- ---------------- ---------- ---------- ---------- ---------- ---------- ----------
201              0                0                56.60      0.0130     0.25       0.22       0          0
202              0                0                39.20      0.0130     0.22       0.19       0          0
204              0                0                14.30      0.0130     0.19       0.15       0          0
208              0                0                40.20      0.0130     0.35       0.19       0          0
206              0                0                52.30      0.0130     0.15       0.06       0          0
210              0                0                55.90      0.0130     0.06       0.01       0          0
212              0                0                56.60      0.0130     0.01       -0.01      0          0
214              0                0                55.10      0.0130     -0.01      -0.08      0          0
216              0                0                56.80      0.0130     -0.08      -0.14      0          0
220              0                0                32.80      0.0130     -0.12      -0.14      0          0
220              0                0                50.40      0.0130     -0.12      -0.22      0          0
224              0                0                51.00      0.0130     -0.17      -0.22      0          0
226              0                0                72.70      0.0130     0.77       0.55       0          0
224              0                0                43.10      0.0130     -0.17      -0.21      0          0
230              0                0                55.00      0.0130     0.91       0.77       0          0
230              0                0                55.90      0.0130     0.63       0.49       0          0
232              0                0                39.20      0.0130     0.49       0.39       0          0
236              0                0                47.10      0.0130     0.65       0.58       0          0
234              0                0                37.90      0.0130     0.39       0.28       0          0
238              0                0                41.10      0.0130     0.28       0.11       0          0
242              0                0                36.30      0.0130     0.15       0.11       0          0
244              0                0                45.90      0.0130     1.17       1.10       0          0
242              0                0                37.80      0.0130     0.15       -0.01      0          0
246              0                0                46.20      0.0130     -0.37      -0.48      0          0
250              0                0                50.40      0.0130     0.07       0.05       0          0
248              0                0                45.60      0.0130     -0.48      -0.52      0          0
252              0                0                40.80      0.0130     -0.52      -0.53      0          0