;; SWMM5 .inp converted from XPSWMM .xp file
;; Generated by XPSWMM Card Reader
;; Source format: XP_CARD | Original title: storm evaluation - East Red Deer

[TITLE]
;;Project Title/Notes
storm evaluation - East Red Deer

[OPTIONS]
FLOW_UNITS           CMS
INFILTRATION         HORTON
FLOW_ROUTING         DYNWAVE
LINK_OFFSETS         DEPTH
MIN_SLOPE            0.0
ALLOW_PONDING        NO
SKIP_STEADY_STATE    NO
ROUTING_STEP         00:00:15
VARIABLE_STEP        0.75
INERTIAL_DAMPING     PARTIAL
NORMAL_FLOW_LIMITED  BOTH
MAX_TRIALS           50
HEAD_TOLERANCE       .001

[JUNCTIONS]
;;Name           Elev       MaxDepth   InitDepth  SurDepth   Aponded
;;-------------- ---------- ---------- ---------- ---------- ----------
0                858.04     0          0          0          0
0                858.00     0          0          0          0
0                858.00     0          0          0          0
0                858.00     0          0          0          0
0                857.82     0          0          0          0
0                857.66     0          0          0          0
0                857.62     0          0          0          0
0                857.53     0          0          0          0
0                857.61     0          0          0          0
0                857.73     0          0          0          0
0                857.49     0          0          0          0
0                857.50     0          0          0          0
0                857.65     0          0          0          0
0                857.91     0          0          0          0
0                857.86     0          0          0          0
0                858.07     0          0          0          0
0                857.82     0          0          0          0
0                857.63     0          0          0          0
0                857.80     0          0          0          0
0                857.25     0          0          0          0

[STORAGE]
;;Name           Elev       MaxDepth   InitDepth  Shape      Curve/Params
;;-------------- ---------- ---------- ---------- ---------- ----------
0                859.00     0          0          FUNCTIONAL 0 0          0
0                858.60     0          0          FUNCTIONAL 0 0          0
0                858.08     1.00       0          FUNCTIONAL 0 0          0
0                858.70     1.00       0          FUNCTIONAL 0 0          0
0                858.80     1.00       0          FUNCTIONAL 0 0          0
0                858.64     1.00       0          FUNCTIONAL 0 0          0
0                858.33     0          0          FUNCTIONAL 0 0          0
0                858.80     0          0          FUNCTIONAL 0 0          0
0                858.66     0          0          FUNCTIONAL 0 0          0
0                858.42     0          0          FUNCTIONAL 0 0          0
0                857.57     0          0          FUNCTIONAL 0 0          0
0                858.28     0          0          FUNCTIONAL 0 0          0
0                858.34     0          0          FUNCTIONAL 0 0          0

[CONDUITS]
;;Name           From             To               Length     Roughness  InOffset   OutOffset  InitFlow   MaxFlow
;;-------------- ---------------- ---------------- ---------- ---------- ---------- ---------- ---------- ----------
548              0                0                76.17      0.0130     854.92     854.84     0          0
549              0                0                30.00      0.0130     854.84     854.84     0          0
555              0                0                60.99      0.0130     854.99     854.92     0          0
565              0                0                52.39      0.0130     856.19     855.97     0          0
567              0                0                78.03      0.0130     855.50     855.28     0          0
568              0                0                63.70      0.0130     855.25     855.08     0          0
566              0                0                39.62      0.0130     855.70     855.56     0          0
584              0                0                36.58      0.0130     857.95     857.28     0          0
583              0                0                66.05      0.0130     857.28     856.95     0          0
582              0                0                58.52      0.0130     856.90     856.63     0          0
581              0                0                58.53      0.0130     856.63     856.62     0          0
580              0                0                30.00      0.0130     856.62     856.41     0          0
579              0                0                90.53      0.0130     856.41     856.16     0          0
588              0                0                108.51     0.0130     857.21     856.85     0          0
587              0                0                68.67      0.0130     856.85     856.62     0          0
586              0                0                62.18      0.0130     856.62     856.44     0          0
585              0                0                70.86      0.0130     856.44     856.22     0          0
578              0                0                104.25     0.0130     856.04     855.64     0          0
577              0                0                30.00      0.0130     855.64     855.59     0          0
589              0                0                30.00      0.0130     856.13     856.10     0          0
590              0                0                30.00      0.0130     856.10     856.05     0          0
592              0                0                30.00      0.0130     856.05     856.03     0          0
593              0                0                30.00      0.0130     856.03     856.00     0          0
594              0                0                30.00      0.0130     856.00     855.96     0          0
575              0                0                30.00      0.0130     855.59     855.55     0          0
574              0                0                30.00      0.0130     855.55     855.50     0          0
573              0                0                30.00      0.0130     855.50     855.48     0          0
572              0                0                30.42      0.0130     855.48     855.44     0          0
571              0                0                43.42      0.0130     855.44     855.39     0          0
570              0                0                59.30      0.0130     855.39     855.32     0          0
569              0                0                152.40     0.0130     855.29     854.99     0          0
595              0                0                51.21      0.0130     856.11     855.85     0          0

[XSECTIONS]
;;Link           Shape        Geom1      Geom2      Geom3      Geom4      Barrels
;;-------------- ------------ ---------- ---------- ---------- ---------- ----------
548              CIRCULAR     0.75       0          0          0          1
549              CIRCULAR     0.75       0          0          0          1
555              CIRCULAR     0.75       0          0          0          1
565              CIRCULAR     0.20       0          0          0          1
567              CIRCULAR     0.38       0          0          0          1
568              CIRCULAR     0.38       0          0          0          1
566              CIRCULAR     0.20       0          0          0          1
584              CIRCULAR     0.25       0          0          0          1
583              CIRCULAR     0.20       0          0          0          1
582              CIRCULAR     0.30       0          0          0          1
581              CIRCULAR     0.30       0          0          0          1
580              CIRCULAR     0.34       0          0          0          1
579              CIRCULAR     0.38       0          0          0          1
588              CIRCULAR     0.25       0          0          0          1
587              CIRCULAR     0.25       0          0          0          1
586              CIRCULAR     0.38       0          0          0          1
585              CIRCULAR     0.38       0          0          0          1
578              CIRCULAR     0.60       0          0          0          1
577              CIRCULAR     0.81       0          0          0          1
589              CIRCULAR     0.40       0          0          0          1
590              CIRCULAR     0.38       0          0          0          1
592              CIRCULAR     0.42       0          0          0          1
593              CIRCULAR     0.40       0          0          0          1
594              CIRCULAR     0.44       0          0          0          1
575              CIRCULAR     0.89       0          0          0          1
574              CIRCULAR     0.78       0          0          0          1
573              CIRCULAR     0.82       0          0          0          1
572              CIRCULAR     0.75       0          0          0          1
571              CIRCULAR     0.75       0          0          0          1
570              CIRCULAR     0.75       0          0          0          1
569              CIRCULAR     0.75       0          0          0          1
595              CIRCULAR     0.30       0          0          0          1

[LOSSES]
;;Link           Inlet      Outlet     Average    Flap Gate
;;-------------- ---------- ---------- ---------- ----------
548              0          0          0          NO
549              0          0          0          NO
555              0          0          0          NO
565              0          0          0          NO
567              0          0          0          NO
568              0          0          0          NO
566              0          0          0          NO
584              0          0          0          NO
583              0          0          0          NO
582              0          0          0          NO
581              0          0          0          NO
580              0          0          0          NO
579              0          0          0          NO
588              0          0          0          NO
587              0          0          0          NO
586              0          0          0          NO
585              0          0          0          NO
578              0          0          0          NO
577              0          0          0          NO
589              0          0          0          NO
590              0          0          0          NO
592              0          0          0          NO
593              0          0          0          NO
594              0          0          0          NO
575              0          0          0          NO
574              0          0          0          NO
573              0          0          0          NO
572              0          0          0          NO
571              0          0          0          NO
570              0          0          0          NO
569              0          0          0          NO
595              0          0          0          NO

[COORDINATES]
;;Node           X-Coord            Y-Coord
;;-------------- ------------------ ------------------
0                -2619.54           -1840.50          
0                -2560.68           -1667.80          
0                -2454.00           -1647.54          
0                -2675.42           -1988.11          
0                -3146.11           -1898.95          
0                -2978.23           -1702.05          
0                -3058.36           -1794.33          
0                -2814.81           -1794.54          
0                -2951.01           -2243.11          
0                -3167.14           -2254.51          
0                -3255.32           -2254.44          
0                -3328.00           -2257.56          
0                -3404.19           -2256.59          
0                -3483.18           -2257.56          
0                -3544.09           -2258.64          
0                -3610.51           -2258.64          
0                -3780.83           -2259.43          
0                -4024.68           -2260.40          
0                -4060.95           -2295.01          
0                -4058.75           -2475.10          
0                -4058.67           -2648.64          
0                -4058.58           -2825.52          
0                -4161.48           -2825.52          
0                -3783.00           -2431.31          
0                -3783.17           -2620.54          
0                -3783.00           -2819.34          
0                -3782.91           -3037.53          
0                -3661.09           -2424.03          
0                -3584.58           -2423.55          
0                -3539.39           -2383.22          
0                -3512.06           -2339.23          
0                -3571.69           -2295.18          
0                -3404.37           -2136.88          

[MAP]
DIMENSIONS -4161.48 -3037.53 -2454.00 -1647.54
Units      None

[REPORT]
INPUT            YES
SUBCATCHMENTS    ALL
NODES            ALL
LINKS            ALL



