;; SWMM5 .inp converted from XPSWMM .xp file
;; Generated by XPSWMM Card Reader
;; Source format: XP_CARD | Original title: Test of Extran

[TITLE]
;;Project Title/Notes
Test of Extran

[OPTIONS]
FLOW_UNITS           CFS
INFILTRATION         HORTON
FLOW_ROUTING         DYNWAVE
LINK_OFFSETS         DEPTH
MIN_SLOPE            0.0
ALLOW_PONDING        NO
SKIP_STEADY_STATE    NO
ROUTING_STEP         00:00:30
VARIABLE_STEP        0.75
INERTIAL_DAMPING     PARTIAL
NORMAL_FLOW_LIMITED  BOTH
HEAD_TOLERANCE       0.0033

[JUNCTIONS]
;;Name           Elev       MaxDepth   InitDepth  SurDepth   Aponded
;;-------------- ---------- ---------- ---------- ---------- ----------
0                10.00      0          0          0          0
0                10.00      0          0          0          0
0                10.00      0          0          0          0
0                10.00      0          0          0          0
0                10.00      0          0          0          0
0                10.00      0          0          0          0
0                10.00      0          0          0          0
0                10.00      0          0          0          0
0                10.00      0          0          0          0
0                10.00      0          0          0          0
0                10.00      0          0          0          0
0                10.00      0          0          0          0
0                10.00      0          0          0          0
0                10.00      0          0          0          0

[CONDUITS]
;;Name           From             To               Length     Roughness  InOffset   OutOffset  InitFlow   MaxFlow
;;-------------- ---------------- ---------------- ---------- ---------- ---------- ---------- ---------- ----------
209              ?                0                50.00      0.0140     0          0          0          0
210              ?                0                50.00      0.0140     0          0          0          0
212              ?                0                50.00      0.0140     0          0          0          0
214              ?                0                50.00      0.0140     0          0          0          0
216              ?                0                50.00      0.0140     0          0          0          0
218              ?                0                50.00      0.0140     0          0          0          0
220              ?                0                50.00      0.0140     0          0          0          0
222              ?                0                50.00      0.0140     0          0          0          0
224              ?                0                50.00      0.0140     0          0          0          0
226              ?                0                50.00      0.0140     0          0          0          0
228              ?                0                50.00      0.0140     0          0          0          0
230              ?                0                50.00      0.0140     0          0          0          0
232              ?                0                50.00      0.0140     0          0          0          0

[XSECTIONS]
;;Link           Shape        Geom1      Geom2      Geom3      Geom4      Barrels
;;-------------- ------------ ---------- ---------- ---------- ---------- ----------
209              CIRCULAR     2.00       0          0          0          1
210              CIRCULAR     2.00       0          0          0          1
212              CIRCULAR     2.00       0          0          0          1
214              CIRCULAR     2.00       0          0          0          1
216              CIRCULAR     2.00       0          0          0          1
218              CIRCULAR     2.00       0          0          0          1
220              CIRCULAR     2.00       0          0          0          1
222              CIRCULAR     2.00       0          0          0          1
224              CIRCULAR     2.00       0          0          0          1
226              CIRCULAR     2.00       0          0          0          1
228              CIRCULAR     2.00       0          0          0          1
230              CIRCULAR     2.00       0          0          0          1
232              CIRCULAR     2.00       0          0          0          1

[LOSSES]
;;Link           Inlet      Outlet     Average    Flap Gate
;;-------------- ---------- ---------- ---------- ----------
209              0          0          0          NO
210              0          0          0          NO
212              0          0          0          NO
214              0          0          0          NO
216              0          0          0          NO
218              0          0          0          NO
220              0          0          0          NO
222              0          0          0          NO
224              0          0          0          NO
226              0          0          0          NO
228              0          0          0          NO
230              0          0          0          NO
232              0          0          0          NO

[COORDINATES]
;;Node           X-Coord            Y-Coord
;;-------------- ------------------ ------------------
0                14.06              50.71             
0                14.21              51.99             
0                14.28              53.63             
0                14.41              55.10             
0                14.61              56.56             
0                15.47              56.83             
0                16.21              57.00             
0                16.46              55.05             
0                16.50              53.83             
0                16.57              52.64             
0                17.42              52.51             
0                18.43              52.59             
0                18.39              53.53             
0                18.30              54.88             

[MAP]
DIMENSIONS 14.06 50.71 18.43 57.00
Units      None

[REPORT]
INPUT            YES
SUBCATCHMENTS    ALL
NODES            ALL
LINKS            ALL



