;; SWMM5 .inp converted from XPSWMM .xp file
;; Generated by XPSWMM Card Reader
;; Source format: XP_CARD | Original title: (none)

[TITLE]
;;Project Title/Notes
Converted from XPSWMM .xp file

[OPTIONS]
FLOW_UNITS           CFS
INFILTRATION         HORTON
FLOW_ROUTING         DYNWAVE
LINK_OFFSETS         DEPTH
MIN_SLOPE            0.0
ALLOW_PONDING        NO
SKIP_STEADY_STATE    NO
ROUTING_STEP         00:00:15
VARIABLE_STEP        0.75
INERTIAL_DAMPING     PARTIAL
NORMAL_FLOW_LIMITED  BOTH
MAX_TRIALS           50
HEAD_TOLERANCE       0.0033

[JUNCTIONS]
;;Name           Elev       MaxDepth   InitDepth  SurDepth   Aponded
;;-------------- ---------- ---------- ---------- ---------- ----------
BA1              0          0          0          0          0
BA2a             0          0          0          0          0
ovfl1a           0          0          0          0          0
BA3              0          0          0          0          0
ovfl2            0          0          0          0          0
BA4a             0          0          0          0          0
BA2b             0          0          0          0          0
BA2c             0          0          0          0          0
BA4b             0          0          0          0          0
ovfl1b           0          0          0          0          0
r365             0          0          0          0          0
CSO              0          0          0          0          0
CSO              0          0          0          0          0
CSO              0          0          0          0          0
CSO              0          0          0          0          0
CSO              0          0          0          0          0
CSO              0          0          0          0          0
A3b              0          0          0          0          0
A1c              0          0          0          0          0
r36              0          0          0          0          0
rNA              0          0          0          0          0
A4               0          0          0          0          0
r24              0          0          0          0          0
r22              0          0          0          0          0
A6e              0          0          0          0          0
A7e              0          0          0          0          0
A8               50.00      0          0          0          0
d15              0          0          0          0          0
r8               0          0          0          0          0
r3               0          0          0          0          0
r3               0          0          0          0          0
CSO              0          0          0          0          0
CSO              0          0          0          0          0
A5               0          0          0          0          0
A2               0          0          0          0          0
A1b              0          0          0          0          0
A3a              0          0          0          0          0
A6a              0          0          0          0          0
A6b              0          0          0          0          0
A6c              0          0          0          0          0
A6d              0          0          0          0          0
A7a              0          0          0          0          0
A7b              0          0          0          0          0
A7c              0          0          0          0          0
A7d              0          0          0          0          0
CSO              0          0          0          0          0
PR1a             0          0          0          0          0
PR1b             0          0          0          0          0
PR1c             0          0          0          0          0
PR1d             0          0          0          0          0
PR1e             0          0          0          0          0
PR1f             0          0          0          0          0
PR2b             0          0          0          0          0
PR2c             0          0          0          0          0
PR2d             0          0          0          0          0
PR2e             0          0          0          0          0
PR2f             0          0          0          0          0
d413             0          0          0          0          0
PRI2b            0          0          0          0          0
PRI3d            0          0          0          0          0
PRI4             0          0          0          0          0
PRI2a            0          0          0          0          0
PRI3a            0          0          0          0          0
PRI3b            0          0          0          0          0
PRI3c            0          0          0          0          0
E2a              0          0          0          0          0
DIV              0          0          0          0          0
CSO              0          0          0          0          0
E3a              0          0          0          0          0
E4               0          0          0          0          0
E5a              0          0          0          0          0
E2b              0          0          0          0          0
E2c              0          0          0          0          0
E2d              0          0          0          0          0
E2e              0          0          0          0          0
E3b              0          0          0          0          0
E5b              0          0          0          0          0
CSO              0          0          0          0          0
CSO              0          0          0          0          0
CSO              0          0          0          0          0
CSO              0          0          0          0          0
CSO              0          0          0          0          0
CSO              0          0          0          0          0
CSO              0          0          0          0          0
CSO              0          0          0          0          0
CSO              0          0          0          0          0
CSO              0          0          0          0          0
C1               0          0          0          0          0
CSO              0          0          0          0          0
CSO              50.00      0          0          0          0
C2b              0          0          0          0          0
C3               0          0          0          0          0
C4               0          0          0          0          0
C5               0          0          0          0          0
C6               0          0          0          0          0
r134             0          0          0          0          0
d131             0          0          0          0          0
d128             0          0          0          0          0
d126             0          0          0          0          0
d122             0          0          0          0          0
C7               0          0          0          0          0
r117             0          0          0          0          0
C8               0          0          0          0          0
d115             0          0          0          0          0
C9               0          0          0          0          0
r111             0          0          0          0          0
C10b             0          0          0          0          0
DC               0          0          0          0          0
C11              0          0          0          0          0
r107             0          0          0          0          0
C12              0          0          0          0          0
C13              0          0          0          0          0
C14              50.00      0          0          0          0
r100             50.00      0          0          0          0
sc               50.00      0          0          0          0
C2a              0          0          0          0          0
C10a             0          0          0          0          0
B6               50.00      0          0          0          0
r37              0          0          0          0          0
CSO              0          0          0          0          0
B5               0          0          0          0          0
d39              0          0          0          0          0
CSO              0          0          0          0          0
B4               0          0          0          0          0
r42              0          0          0          0          0
CSO              0          0          0          0          0
B3               0          0          0          0          0
r47              0          0          0          0          0
cso              0          0          0          0          0
B2               0          0          0          0          0
B1               0          0          0          0          0
r141             0          0          0          0          0
SR               0          0          0          0          0
CSO              0          0          0          0          0
CR2a             0          0          0          0          0
CR2b             0          0          0          0          0
CR4b             0          0          0          0          0
D2               0          0          0          0          0
d2               0          0          0          0          0
D3               0          0          0          0          0
d3               0          0          0          0          0
D6               0          0          0          0          0
r238             0          0          0          0          0
CSO              0          0          0          0          0
D7               0          0          0          0          0
d7               0          0          0          0          0
D1c              0          0          0          0          0
D5               0          0          0          0          0
S2a              0          0          0          0          0
S3a              0          0          0          0          0
S4               0          0          0          0          0
REG              0          0          0          0          0
CSO              0          0          0          0          0
DIV              0          0          0          0          0
CSO              0          0          0          0          0
CSO              0          0          0          0          0
S2b              0          0          0          0          0
S5b              0          0          0          0          0
FR4b             0          0          0          0          0
FR4c             0          0          0          0          0
FR4e             0          0          0          0          0
FR4d             0          0          0          0          0
r1               0          0          0          0          0
CSO              0          0          0          0          0
Sr3              0          0          0          0          0
Sr4              0          0          0          0          0
Sr5              0          0          0          0          0
Sr6              0          0          0          0          0
Sr7              0          0          0          0          0
Sr8              0          0          0          0          0
Sr9              0          0          0          0          0
Sr10             0          0          0          0          0
Sr11             0          0          0          0          0
Sr12             0          0          0          0          0
Sr13             0          0          0          0          0
Sr14             0          0          0          0          0
Sr15             0          0          0          0          0
r360             0          0          0          0          0
Sr16             0          0          0          0          0
Sr17             0          0          0          0          0
Sr18             0          0          0          0          0
Sr19             0          0          0          0          0
Sr20             0          0          0          0          0
Sr21             0          0          0          0          0
Sr22             0          0          0          0          0
Sr23             0          0          0          0          0
Sr24             0          0          0          0          0
CSO              0          0          0          0          0
cso              0          0          0          0          0
CSO              0          0          0          0          0
Ci1              0          0          0          0          0
Ci2              0          0          0          0          0
Ci3              0          0          0          0          0
Ci4              0          0          0          0          0
Ci5              0          0          0          0          0
Ci6              0          0          0          0          0
Ci7              0          0          0          0          0
Ci8              0          0          0          0          0
Ci9              0          0          0          0          0
Ci10             0          0          0          0          0
Ci11             0          0          0          0          0
Ci12             0          0          0          0          0
Ci13             0          0          0          0          0
Ci14             0          0          0          0          0
CSO              0          0          0          0          0
CSO              0          0          0          0          0
CSO              0          0          0          0          0
E3c              0          0          0          0          0
S5a              0          0          0          0          0
GRR              0          0          0          0          0
S2c              0          0          0          0          0
S3b              0          0          0          0          0
ps               50.00      0          0          0          0
pe               30.00      0          0          0          0
r1               0          0          0          0          0
Sr8              0          0          0          0          0
r360             0          0          0          0          0
r134             0          0          0          0          0
d131             0          0          0          0          0
d128             0          0          0          0          0
d126             0          0          0          0          0
d122             0          0          0          0          0
r117             0          0          0          0          0
d115             0          0          0          0          0
r111             0          0          0          0          0
d3s              0          0          0          0          0
d2s              0          0          0          0          0
r107             0          0          0          0          0
r100             50.00      0          0          0          0
d39              0          0          0          0          0
r42              0          0          0          0          0
r47              0          0          0          0          0
r37              0          0          0          0          0
REG              0          0          0          0          0
DIV              0          0          0          0          0
GRR              0          0          0          0          0
r365             0          0          0          0          0
BA1              0          0          0          0          0
r36              0          0          0          0          0
rNA              0          0          0          0          0
r24              0          0          0          0          0
r22              0          0          0          0          0
d15              0          0          0          0          0
d413             0          0          0          0          0
r8               0          0          0          0          0
r3               0          0          0          0          0
dNA              0          0          0          0          0
r238             0          0          0          0          0
B1               0          0          0          0          0
FM1a             30.00      0          0          0          0

[CONDUITS]
;;Name           From             To               Length     Roughness  InOffset   OutOffset  InitFlow   MaxFlow
;;-------------- ---------------- ---------------- ---------- ---------- ---------- ---------- ---------- ----------
p                BA1              BA2a             174.00     0.0130     48.20      47.68      0          0
p                BA1              ovfl1a           174.00     0.0130     48.20      47.99      0          0
p                BA3              BA4a             978.00     0.0130     43.20      40.27      0          0
p                BA2a             BA2b             504.00     0.0130     47.68      46.17      0          0
p                BA2b             BA2c             123.00     0.0130     46.17      46.06      0          0
p                BA2c             BA3              943.00     0.0130     46.06      43.20      0          0
p                BA4a             BA4b             711.00     0.0130     40.27      38.13      0          0
1                BA4b             A1b              400.00     0.0130     38.13      33.90      0          0
p                ovfl1a           ovfl1b           300.00     0.0130     47.99      44.72      0          0
p                ovfl1b           ovfl2            1275.00    0.0130     43.20      32.87      0          0
to               r365             CSO              150.00     0.0130     42.38      38.63      0          0
to               r365             BA4a             89.00      0.0130     46.50      42.38      0          0
to               r36              CSO              75.00      0.0130     44.23      43.48      0          0
to               r36              A1c              140.00     0.0130     44.23      36.98      0          0
to               rNA              CSO              20.00      0.0130     29.50      28.30      0          0
to               rNA              A3b              50.00      0.0130     29.50      28.00      0          0
to               r24              CSO              150.00     0.0130     30.08      29.70      0          0
to               r24              A4               50.00      0.0130     28.75      27.10      0          0
to               r22              CSO              550.00     0.0130     26.93      13.18      0          0
to               r22              A5               50.00      0.0130     26.93      26.08      0          0
to               d15              A6e              50.00      0.0130     24.33      22.46      0          0
to               d15              CSO              70.00      0.0130     25.39      24.89      0          0
to               r8               CSO              260.00     0.0130     10.34      9.40       0          0
to               r8               A7e              50.00      0.0130     9.40       8.13       0          0
to               r3               r3               198.00     0.0130     10.72      9.87       0          0
to               r3               CSO              30.00      0.0130     9.87       9.83       0          0
to               r3               A8               50.00      0.0130     7.40       5.40       0          0
A5-a             A4               A5               1728.00    0.0130     26.82      24.40      0          0
p                A3b              A4               844.00     0.0130     28.00      26.82      0          0
p                A1c              A2               1742.00    0.0130     33.40      29.22      0          0
p                A7e              A8               1036.00    0.0130     6.54       5.40       0          0
p                A1b              A1c              208.00     0.0130     33.90      33.40      0          0
p                A2               A3a              321.00     0.0130     29.22      28.45      0          0
p                A3a              A3b              321.00     0.0130     28.45      28.00      0          0
p                A5               A6a              193.00     0.0130     24.40      24.13      0          0
p                A6a              A6b              20.00      0.0130     24.13      23.82      0          0
p                A6b              A6c              175.00     0.0130     23.82      22.84      0          0
p                A6c              A6d              20.00      0.0130     22.84      22.04      0          0
p                A6d              A6e              480.00     0.0130     22.04      21.32      0          0
p                A6e              A7a              613.00     0.0130     21.32      20.40      0          0
p                A7a              A7b              20.00      0.0130     20.40      18.94      0          0
p                A7b              A7c              530.00     0.0130     18.94      13.64      0          0
pipe             A7c              A7d              655.00     0.0130     13.64      10.04      0          0
p                A7d              A7e              20.00      0.0130     10.04      6.54       0          0
p                PR1a             PR1b             348.00     0.0130     42.10      39.30      0          0
p                PR1b             PR1c             8.00       0.0130     39.30      38.00      0          0
p                PR1c             PR1d             366.00     0.0130     38.00      33.80      0          0
p                PR1d             PR1e             363.00     0.0130     33.70      31.28      0          0
p                PR1e             PR1f             470.00     0.0130     31.25      28.12      0          0
p                PR1f             PR2b             292.00     0.0130     28.12      25.80      0          0
p                PR2b             PR2c             228.00     0.0130     24.00      23.30      0          0
p                PR2c             PR2d             526.00     0.0130     23.30      19.10      0          0
p                PR2d             PR2e             133.00     0.0130     19.10      12.25      0          0
p                PR2e             PR2f             55.00      0.0130     12.25      11.00      0          0
p                PR2f             CSO              470.00     0.0130     11.00      10.00      0          0
p                PRI3d            PRI4             370.00     0.0130     15.24      14.13      0          0
p                PRI4             r8               1262.00    0.0130     14.13      10.34      0          0
to               d413             PR1a             120.00     0.0130     44.26      42.10      0          0
p                d413             PRI2a            250.00     0.0130     43.75      43.00      0          0
p                PRI2a            PRI2b            25.00      0.0130     43.00      42.77      0          0
p                PRI2b            PRI3a            650.00     0.0130     42.77      30.42      0          0
p                PRI3a            PRI3b            725.00     0.0130     30.42      23.90      0          0
p                PRI3b            PRI3c            224.00     0.0130     23.90      19.87      0          0
p                PRI3c            PRI3d            351.00     0.0130     19.87      15.24      0          0
to               DIV              E2a              647.00     0.0130     23.28      22.50      0          0
to               DIV              CSO              24.00      0.0130     23.28      23.08      0          0
p                E4               E5a              520.00     0.0130     12.48      11.96      0          0
p                E2a              E2b              692.00     0.0130     21.50      21.35      0          0
p                E2b              E2c              1904.00    0.0130     21.15      20.24      0          0
p                E2c              E2d              75.00      0.0130     20.24      16.85      0          0
p                E2d              E2e              790.00     0.0130     16.85      16.45      0          0
p                E2e              E3a              408.00     0.0130     16.45      16.25      0          0
p                E3a              E3b              453.00     0.0130     15.78      14.23      0          0
p                E3b              E3c              470.00     0.0130     14.23      12.78      0          0
p                E5a              E5b              496.00     0.0130     11.96      11.52      0          0
p                E5b              r3               209.00     0.0130     11.52      10.72      0          0
p                r141             C1               2308.00    0.0130     13.17      11.32      0          0
p                C2b              C3               223.00     0.0130     10.84      10.71      0          0
p                C3               C4               195.00     0.0130     10.71      10.61      0          0
p                C4               C5               255.00     0.0130     10.61      10.46      0          0
p                C5               C6               278.00     0.0130     10.46      10.31      0          0
to               r134             C2b              20.00      0.0130     14.85      13.87      0          0
to               d131             C3               50.00      0.0130     15.98      14.96      0          0
to               d128             C4               20.00      0.0130     16.65      14.86      0          0
to               d126             C5               3.33       0.0130     15.16      14.71      0          0
to               d122             C6               35.00      0.0130     15.52      14.57      0          0
to               r134             CSO              270.00     0.0130     14.73      12.20      0          0
to               d131             CSO              210.00     0.0130     16.98      14.90      0          0
to               d128             CSO              185.00     0.0130     17.65      14.40      0          0
to               d126             CSO              160.00     0.0130     16.16      13.11      0          0
to               d122             CSO              185.00     0.0130     16.52      12.70      0          0
p                C6               C7               1274.00    0.0130     10.31      9.59       0          0
to               r117             C7               23.00      0.0130     13.10      12.70      0          0
to               r117             CSO              260.00     0.0130     14.02      12.70      0          0
p                C7               C8               968.00     0.0130     9.59       9.01       0          0
to               d115             C8               20.00      0.0130     15.13      12.84      0          0
to               d115             CSO              90.00      0.0130     16.18      14.02      0          0
to               r111             C9               35.00      0.0130     14.70      12.74      0          0
p                C8               C9               268.00     0.0130     9.01       8.85       0          0
to               r111             CSO              220.00     0.0130     15.08      13.90      0          0
p                C10b             C11              340.00     0.0130     7.96       7.74       0          0
siphon           DC               C10b             400.00     0.0130     11.54      9.98       0          0
to               r107             C11              20.00      0.0130     18.30      12.24      0          0
to               C10b             CSO              50.00      0.0130     7.96       7.96       0          0
p                C11              C12              793.00     0.0130     7.74       7.21       0          0
p                C12              C13              262.00     0.0130     7.21       7.04       0          0
p                C13              C14              520.00     0.0130     7.04       6.70       0          0
to               r100             C14              22.00      0.0130     13.60      8.86       0          0
p                C14              sc               568.00     0.0130     6.70       6.32       0          0
to               r107             CSO              500.00     0.0130     19.90      14.65      0          0
to               r100             CSO              22.60      0.0130     14.44      14.12      0          0
sb               sc               ps               347.00     0.0130     3.82       2.89       0          0
cso19            sc               CSO              100.00     0.0130     6.32       6.31       0          0
p                C1               C2a              133.00     0.0130     11.32      10.90      0          0
p                C2a              C2b              20.00      0.0130     10.90      10.84      0          0
p                C9               C10a             825.00     0.0130     8.85       8.36       0          0
p                C10a             C10b             20.00      0.0130     8.36       7.96       0          0
p                B6               sc               525.00     0.0130     7.32       6.32       0          0
to               r37              B6               20.00      0.0130     9.39       8.82       0          0
to               r37              CSO              117.00     0.0130     9.39       8.06       0          0
p                B5               B6               732.00     0.0130     10.35      7.32       0          0
to               d39              CSO              30.00      0.0130     12.30      11.10      0          0
to               d39              B5               50.00      0.0130     12.30      11.30      0          0