;; SWMM5 .inp converted from XPSWMM .xp file
;; Generated by XPSWMM Card Reader
;; Source format: XP_CARD | Original title: Grande Prairie Master Database

[TITLE]
;;Project Title/Notes
Grande Prairie Master Database

[OPTIONS]
FLOW_UNITS           CMS
INFILTRATION         HORTON
FLOW_ROUTING         DYNWAVE
LINK_OFFSETS         DEPTH
MIN_SLOPE            0.0
ALLOW_PONDING        NO
SKIP_STEADY_STATE    NO
ROUTING_STEP         00:00:30
VARIABLE_STEP        0.75
INERTIAL_DAMPING     PARTIAL
NORMAL_FLOW_LIMITED  BOTH

[JUNCTIONS]
;;Name           Elev       MaxDepth   InitDepth  SurDepth   Aponded
;;-------------- ---------- ---------- ---------- ---------- ----------
0                0          0          0          0          0
0                0          0          0          0          0
0                0          0          0          0          0
0                0          0          0          0          0
0                0          0          0          0          0
0                0          0          0          0          0
0                0          0          0          0          0
0                0          0          0          0          0
0                0          0          0          0          0
0                0          0          0          0          0
0                0          0          0          0          0
0                0          0          0          0          0
0                0          0          0          0          0
0                0          0          0          0          0
0                0          0          0          0          0
0                0          0          0          0          0
0                0          0          0          0          0
0                0          0          0          0          0
0                0          0          0          0          0
0                0          0          0          0          0
0                100.00     0          0          0          0
0                98.50      0          0          0          0
0                98.00      0          0          0          0

[CONDUITS]
;;Name           From             To               Length     Roughness  InOffset   OutOffset  InitFlow   MaxFlow
;;-------------- ---------------- ---------------- ---------- ---------- ---------- ---------- ---------- ----------
207              0                0                0          0          0          0          0          0
210              0                0                0          0          0          0          0          0
213              0                0                0          0          0          0          0          0
216              0                0                0          0          0          0          0          0
219              0                0                0          0          0          0          0          0
222              0                0                0          0          0          0          0          0
225              0                0                0          0          0          0          0          0
228              0                0                0          0          0          0          0          0
232              0                0                150.00     0.0130     0          0          0          0
233              0                0                70.00      0.0180     0          0          0          0
237              0                0                150.00     0.0130     0          0          0          0
pipe1            street 1         0                120.00     0.0130     98.00      96.30      0          0
pipe2            street2          0                92.00      0.0130     96.30      95.00      0          0

[XSECTIONS]
;;Link           Shape        Geom1      Geom2      Geom3      Geom4      Barrels
;;-------------- ------------ ---------- ---------- ---------- ---------- ----------
207              CIRCULAR     0          0          0          0          1
210              CIRCULAR     0          0          0          0          1
213              CIRCULAR     0          0          0          0          1
216              CIRCULAR     0          0          0          0          1
219              CIRCULAR     0          0          0          0          1
222              CIRCULAR     0          0          0          0          1
225              CIRCULAR     0          0          0          0          1
228              CIRCULAR     0          0          0          0          1
232              CIRCULAR     0.38       0          0          0          1
233              TRAPEZOIDAL  1.00       2.00       0          0          1
237              CIRCULAR     0.38       0          0          0          1
pipe1            CIRCULAR     0.05       0          0          0          1
pipe2            CIRCULAR     0.05       0          0          0          1

[LOSSES]
;;Link           Inlet      Outlet     Average    Flap Gate
;;-------------- ---------- ---------- ---------- ----------
207              0          0          0          NO
210              0          0          0          NO
213              0          0          0          NO
216              0          0          0          NO
219              0          0          0          NO
222              0          0          0          NO
225              0          0          0          NO
228              0          0          0          NO
232              0          0          0          NO
233              0          0          0          NO
237              0          0          0          NO
pipe1            0          0          0          NO
pipe2            0          0          0          NO

[COORDINATES]
;;Node           X-Coord            Y-Coord
;;-------------- ------------------ ------------------
0                32.87              105.88            
0                32.87              107.88            
0                33.87              105.88            
0                33.87              107.88            
0                34.87              105.88            
0                34.87              107.88            
0                35.87              105.88            
0                35.87              107.88            
0                36.84              105.95            
0                36.84              107.95            
0                37.84              105.95            
0                37.84              107.95            
0                38.84              105.95            
0                38.84              107.95            
0                39.84              105.95            
0                39.84              107.95            
0                33.14              115.50            
0                35.38              117.34            
0                38.67              117.34            
0                33.07              119.11            
0                34.25              126.31            
0                35.02              132.18            
0                35.86              138.42            

[MAP]
DIMENSIONS 32.87 105.88 39.84 138.42
Units      None

[REPORT]
INPUT            YES
SUBCATCHMENTS    ALL
NODES            ALL
LINKS            ALL



