;; SWMM5 .inp converted from XPSWMM .xp file
;; Generated by XPSWMM Card Reader
;; Source format: XP_CARD | Original title: St Marys To Salt Creek (existing w/ 1.2m Culv)

[TITLE]
;;Project Title/Notes
St Marys To Salt Creek (existing w/ 1.2m Culv)

[OPTIONS]
FLOW_UNITS           CMS
INFILTRATION         HORTON
FLOW_ROUTING         DYNWAVE
LINK_OFFSETS         DEPTH
MIN_SLOPE            0.0
ALLOW_PONDING        NO
SKIP_STEADY_STATE    NO
ROUTING_STEP         00:00:15
VARIABLE_STEP        0.75
INERTIAL_DAMPING     PARTIAL
NORMAL_FLOW_LIMITED  BOTH

[JUNCTIONS]
;;Name           Elev       MaxDepth   InitDepth  SurDepth   Aponded
;;-------------- ---------- ---------- ---------- ---------- ----------
1                83.00      0          0          0          0
2                82.36      0          0          0          0
3                82.40      0          0          0          0
4                82.00      0          0          0          0
8                82.20      0          0          0          0
10               82.39      0          0          0          0
12               82.00      0          0          0          0
14               83.53      0          0          0          0
16               82.54      0          0          0          0
18               81.59      0          0          0          0
20               82.00      0          0          0          0
22               81.94      0          0          0          0
24               82.04      0          0          0          0
26               82.00      0          0          0          0
29               81.70      0          0          0          0
31               81.80      0          0          0          0

[CONDUITS]
;;Name           From             To               Length     Roughness  InOffset   OutOffset  InitFlow   MaxFlow
;;-------------- ---------------- ---------------- ---------- ---------- ---------- ---------- ---------- ----------
5                1                2                53.00      0.0250     81.75      80.75      0          0
6                2                4                10.00      0.0250     80.75      80.97      0          0
7                2                3                34.75      0.0140     80.50      80.31      0          0
9                3                8                87.15      0.0150     80.29      79.81      0          0
11               8                10               3.10       0.0250     79.80      81.81      0          0
13               8                12               17.40      0.0150     79.78      79.75      0          0
15               12               14               3.30       0.0250     79.80      82.38      0          0
17               12               16               214.70     0.0150     79.75      79.25      0          0
19               16               18               38.60      0.0250     78.91      80.14      0          0
21               16               20               76.50      0.0150     78.74      78.53      0          0
23               20               22               32.15      0.0250     78.53      79.67      0          0
25               22               24               19.40      0.0250     80.51      80.64      0          0
27               20               26               39.20      0.0150     78.53      78.43      0          0
30               29               24               60.00      0.0250     80.95      80.69      0          0
32               31               3                2.20       0.0250     80.70      80.30      0          0

[XSECTIONS]
;;Link           Shape        Geom1      Geom2      Geom3      Geom4      Barrels
;;-------------- ------------ ---------- ---------- ---------- ---------- ----------
5                CIRCULAR     1.20       0          0          0          1
6                CIRCULAR     0.45       0          0          0          1
7                CIRCULAR     0.90       0          0          0          1
9                CIRCULAR     0.90       0          0          0          1
11               CIRCULAR     0.30       0          0          0          1
13               CIRCULAR     0.90       0          0          0          1
15               CIRCULAR     0.30       0          0          0          1
17               CIRCULAR     0.90       0          0          0          1
19               CIRCULAR     0.75       0          0          0          1
21               CIRCULAR     1.50       0          0          0          1
23               CIRCULAR     0.75       0          0          0          1
25               CIRCULAR     0.75       0          0          0          1
27               CIRCULAR     1.50       0          0          0          1
30               CIRCULAR     0.75       0          0          0          1
32               CIRCULAR     0.45       0          0          0          1

[LOSSES]
;;Link           Inlet      Outlet     Average    Flap Gate
;;-------------- ---------- ---------- ---------- ----------
5                0          0          0          NO
6                0          0          0          NO
7                0          0          0          NO
9                0          0          0          NO
11               0          0          0          NO
13               0          0          0          NO
15               0          0          0          NO
17               0          0          0          NO
19               0          0          0          NO
21               0          0          0          NO
23               0          0          0          NO
25               0          0          0          NO
27               0          0          0          NO
30               0          0          0          NO
32               0          0          0          NO

[COORDINATES]
;;Node           X-Coord            Y-Coord
;;-------------- ------------------ ------------------
1                25.90              24.09             
2                60.09              24.14             
3                116.18             36.06             
4                60.28              51.53             
8                116.67             91.53             
10               127.22             91.81             
12               116.41             110.99            
14               123.63             111.27            
16               116.13             199.35            
18               66.67              197.94            
20               115.62             228.79            
22               82.50              229.31            
24               63.06              244.58            
26               128.98             266.55            
29               27.80              229.82            
31               124.98             35.73             

[MAP]
DIMENSIONS 25.90 24.09 128.98 266.55
Units      None

[REPORT]
INPUT            YES
SUBCATCHMENTS    ALL
NODES            ALL
LINKS            ALL



