;; SWMM5 .inp converted from XPSWMM .xp file
;; Generated by XPSWMM Card Reader
;; Source format: XP_CARD | Original title: System Model   - ASFO 3 Yr Summer, Peak 3 Days   | C.E.A.  July 1997

[TITLE]
;;Project Title/Notes
System Model   - ASFO 3 Yr Summer, Peak 3 Days   | C.E.A.  July 1997

[OPTIONS]
FLOW_UNITS           CFS
INFILTRATION         HORTON
FLOW_ROUTING         DYNWAVE
LINK_OFFSETS         DEPTH
MIN_SLOPE            0.0
ALLOW_PONDING        NO
SKIP_STEADY_STATE    NO
ROUTING_STEP         00:00:15
VARIABLE_STEP        0.75
INERTIAL_DAMPING     PARTIAL
NORMAL_FLOW_LIMITED  BOTH
MAX_TRIALS           50
HEAD_TOLERANCE       0.0033

[JUNCTIONS]
;;Name           Elev       MaxDepth   InitDepth  SurDepth   Aponded
;;-------------- ---------- ---------- ---------- ---------- ----------
2202002          194.00     0          0          0          0
2202003          192.00     0          0          0          0
2202004          191.00     0          0          0          0
2202005          189.00     0          0          0          0
2202006          187.00     0          0          0          0
2202007          124.00     0          0          0          0
2202008          192.00     0          0          0          0
2202009          191.00     0          0          0          0
2202010          190.00     0          0          0          0
2202012          184.00     0          0          0          0
2202013          181.00     0          0          0          0
2202014          177.00     0          0          0          0
2202015          180.00     0          0          0          0
2202016          176.00     0          0          0          0
2202017          184.00     0          0          0          0
2202018          183.00     0          0          0          0
2202020          178.00     0          0          0          0
2202021          176.00     0          0          0          0
2202022          126.00     0          0          0          0
2202023          136.00     0          0          0          0
2202024          130.00     0          0          0          0
2202025          132.00     0          0          0          0
2202026          133.00     0          0          0          0
2202027          133.00     0          0          0          0
2202028          135.00     0          0          0          0
2202029          174.00     0          0          0          0
2202030          171.00     0          0          0          0
2202031          166.00     0          0          0          0
2202032          140.00     0          0          0          0
2202033          139.00     0          0          0          0
2202034          136.00     0          0          0          0
2202040          114.00     0          0          0          0
2202041          102.00     0          0          0          0
2202042          100.00     0          0          0          0
2202043          93.00      0          0          0          0
2202044          86.00      0          0          0          0
2202045          82.00      0          0          0          0
2202046          83.00      0          0          0          0
2202047          110.00     0          0          0          0
2202051          187.00     0          0          0          0
2202052          195.00     0          0          0          0
2202053          191.60     0          0          0          0
2202054          193.00     0          0          0          0
2202055          179.00     0          0          0          0
2202056          179.40     0          0          0          0
2202057          179.70     0          0          0          0
2202058          152.00     0          0          0          0
2202059          151.00     0          0          0          0
2202060          149.20     0          0          0          0
2202061          148.50     0          0          0          0
2202062          167.00     0          0          0          0
2202063          168.50     0          0          0          0
2202064          141.50     0          0          0          0
2202065          130.50     0          0          0          0
2202066          123.50     0          0          0          0
2202067          112.50     0          0          0          0
2202068          110.00     0          0          0          0
2202070          92.50      0          0          0          0
2202071          86.00      0          0          0          0
2202072          85.00      0          0          0          0
2202073          78.00      0          0          0          0
2202074          85.00      0          0          0          0
2202075          87.00      0          0          0          0
2202076          89.50      0          0          0          0
2202077          97.50      0          0          0          0
2202078          103.50     0          0          0          0
2202079          113.50     0          0          0          0
2202080          121.50     0          0          0          0
2202081          128.50     0          0          0          0
2202082          139.00     0          0          0          0
2202124          134.00     0          0          0          0
2202157          185.80     0          0          0          0
2202161          168.00     0          0          0          0
2202174          83.00      0          0          0          0
2202182          143.00     0          0          0          0
2202257          179.70     0          0          0          0
2202373          79.00      0          0          0          0
2202374          86.00      0          0          0          0
2202375          92.00      0          0          0          0
2202376          98.00      0          0          0          0
2202377          100.00     0          0          0          0
2202495          52.00      0          0          0          0
5022620          37.00      0          0          0          0
2202995          38.00      0          0          0          0
2202996          42.00      0          0          0          0
2206016          55.00      0          0          0          0
2200069          100.00     0          0          0          0
2200070          46.00      0          0          0          0
2200074          85.00      0          0          0          0
2200075          87.00      0          0          0          0
2200077          97.50      0          0          0          0
2200177          97.50      0          0          0          0
2200277          101.50     0          0          0          0
2200377          101.50     0          0          0          0
5022621          37.50      0          0          0          0
3200001          30.00      0          0          0          0
3200002          31.00      0          0          0          0
3200003          33.50      0          0          0          0
3200004          34.50      0          0          0          0
3200005          35.80      0          0          0          0
3200006          41.80      0          0          0          0
3200007          38.80      0          0          0          0
3200008          39.80      0          0          0          0
3200009          40.80      0          0          0          0
3200010          39.80      0          0          0          0
3200011          38.80      0          0          0          0
3200012          39.80      0          0          0          0
3200014          42.30      0          0          0          0
3200015          42.80      0          0          0          0
3200016          43.30      0          0          0          0
3200017          43.80      0          0          0          0
3200018          44.80      0          0          0          0
3200019          46.80      0          0          0          0
3200020          51.80      0          0          0          0
3200021          56.80      0          0          0          0
3200022          63.80      0          0          0          0
3200023          69.80      0          0          0          0
3200024          77.80      0          0          0          0
3200025          86.30      0          0          0          0
3200026          100.40     0          0          0          0
3200027          106.20     0          0          0          0
3200028          108.40     0          0          0          0
3200029          110.40     0          0          0          0
3200030          122.45     0          0          0          0
3200031          123.85     0          0          0          0
3200032          125.93     0          0          0          0
3200033          127.90     0          0          0          0
3200034          129.60     0          0          0          0
3200035          135.00     0          0          0          0
3200036          139.80     0          0          0          0
3200037          142.80     0          0          0          0
3200038          145.80     0          0          0          0
3200039          148.80     0          0          0          0
3200040          164.30     0          0          0          0
3200041          156.70     0          0          0          0
3200042          158.20     0          0          0          0
3200043          163.00     0          0          0          0
3200044          167.00     0          0          0          0
3200045          172.70     0          0          0          0
5032350          17.20      0          0          0          0
3200051          33.20      0          0          0          0
3200055          43.30      0          0          0          0
3200056          32.50      0          0          0          0
3200114          47.30      0          0          0          0
3200117          45.80      0          0          0          0
3200118          55.00      0          0          0          0
3200119          96.80      0          0          0          0
3200120          99.80      0          0          0          0
3200134          139.80     0          0          0          0
3200140          150.80     0          0          0          0
3200141          170.00     0          0          0          0
3200153          48.00      0          0          0          0
3200154          50.00      0          0          0          0
3200206          39.30      0          0          0          0
3200207          50.00      0          0          0          0
3200208          40.80      0          0          0          0
3200209          40.80      0          0          0          0
3200211          39.80      0          0          0          0
3200212          40.80      0          0          0          0
3200214          53.30      0          0          0          0
3200217          47.80      0          0          0          0
3200220          147.00     0          0          0          0
3200234          149.00     0          0          0          0
3200240          154.80     0          0          0          0
3200307          38.80      0          0          0          0
3200317          51.00      0          0          0          0
3200340          155.80     0          0          0          0
3200406          42.80      0          0          0          0
3200409          50.00      0          0          0          0
3200412          49.00      0          0          0          0
3200440          159.80     0          0          0          0
3200507          57.80      0          0          0          0
3200540          156.70     0          0          0          0
3200640          163.80     0          0          0          0
3200707          85.30      0          0          0          0
3200740          165.80     0          0          0          0
3200807          46.80      0          0          0          0
3200907          85.30      0          0          0          0
3206505          44.00      0          0          0          0
3202007          38.80      0          0          0          0
3202008          40.80      0          0          0          0
3202009          40.60      0          0          0          0
3202011          38.80      0          0          0          0
3202012          39.80      0          0          0          0
3202013          40.80      0          0          0          0
3202052          37.80      0          0          0          0
3202107          38.80      0          0          0          0
3202108          41.80      0          0          0          0
3202112          40.00      0          0          0          0
3206506          52.00      0          0          0          0
3202207          38.80      0          0          0          0
3202307          43.30      0          0          0          0
3206402          42.00      0          0          0          0
3202407          41.80      0          0          0          0
3206401          51.00      0          0          0          0
3202607          38.80      0          0          0          0
5032330          30.00      0          0          0          0
5032340          20.00      0          0          0          0
5032360          14.00      0          0          0          0
2602001          43.50      0          0          0          0
2602003          69.00      0          0          0          0
2602005          102.40     0          0          0          0
2602006          120.60     0          0          0          0
2602007          141.50     0          0          0          0
2602008          155.60     0          0          0          0
2602009          157.70     0          0          0          0
2602010          169.70     0          0          0          0
2602011          184.00     0          0          0          0
2602012          176.60     0          0          0          0
2602013          168.20     0          0          0          0
2602017          169.00     0          0          0          0
2602018          174.30     0          0          0          0
2602019          176.80     0          0          0          0
2602020          175.80     0          0          0          0
2602021          175.30     0          0          0          0
2602022          174.80     0          0          0          0
2602023          174.30     0          0          0          0
2602024          173.80     0          0          0          0
2602025          171.00     0          0          0          0
2602026          180.80     0          0          0          0
2602027          170.00     0          0          0          0
2602028          181.80     0          0          0          0
2602029          167.80     0          0          0          0
2602030          182.80     0          0          0          0
2602031          181.30     0          0          0          0
2602032          180.80     0          0          0          0
2602033          179.80     0          0          0          0
2602034          180.80     0          0          0          0
2602035          190.80     0          0          0          0
2602036          174.80     0          0          0          0
2602037          175.80     0          0          0          0
2602038          191.80     0          0          0          0
2602039          170.80     0          0          0          0
2602040          173.80     0          0          0          0
2602041          193.80     0          0          0          0
2602042          163.80     0          0          0          0
2602043          174.80     0          0          0          0
2602044          197.80     0          0          0          0
2602045          160.80     0          0          0          0
2602046          177.80     0          0          0          0
2602047          200.30     0          0          0          0
2602048          133.80     0          0          0          0
2602050          164.50     0          0          0          0
2602051          163.60     0          0          0          0
2602052          159.10     0          0          0          0
2602053          100.80     0          0          0          0
2602054          148.00     0          0          0          0
2602055          158.00     0          0          0          0
2602056          45.00      0          0          0          0
2602059          178.00     0          0          0          0
2602060          177.00     0          0          0          0
2602061          174.30     0          0          0          0
2602062          172.40     0          0          0          0
2602063          176.40     0          0          0          0
2602064          182.20     0          0          0          0
2602065          176.40     0          0          0          0
2602066          184.00     0          0          0          0
2602070          164.90     0          0          0          0
2602071          171.70     0          0          0          0
2602072          185.00     0          0          0          0
2602073          184.40     0          0          0          0
2602080          174.40     0          0          0          0
2602083          174.80     0          0          0          0
2602102          55.60      0          0          0          0
2602103          69.30      0          0          0          0
2602105          102.40     0          0          0          0
2602106          120.60     0          0          0          0
2602107          137.70     0          0          0          0
2602108          154.60     0          0          0          0
2602109          158.20     0          0          0          0
2602110          169.70     0          0          0          0
2602111          184.00     0          0          0          0
2602112          176.60     0          0          0          0
2602113          168.00     0          0          0          0
2602149          166.00     0          0          0          0
2602150          166.50     0          0          0          0
2602151          164.50     0          0          0          0
2602152          161.40     0          0          0          0
2602153          123.80     0          0          0          0
2602158          57.00      0          0          0          0
2602163          178.30     0          0          0          0
2602170          164.80     0          0          0          0
2602171          171.70     0          0          0          0
2602180          176.50     0          0          0          0
2602204          79.00      0          0          0          0
2602209          161.40     0          0          0          0
2602249          167.30     0          0          0          0
2602253          76.80      0          0          0          0
2602302          70.80      0          0          0          0
2602303          69.00      0          0          0          0
2602304          85.80      0          0          0          0
2602309          161.40     0          0          0          0
2602314          176.30     0          0          0          0
2602315          177.80     0          0          0          0
2602316          176.50     0          0          0          0
2602349          168.00     0          0          0          0
2602403          77.80      0          0          0          0
2602509          163.00     0          0          0          0
2602709          157.80     0          0          0          0
2606302          62.00      0          0          0          0
2604110          60.00      0          0          0          0
5026441          35.80      0          0          0          0
5026460          30.00      0          0          0          0
1300001          32.00      0          0          0          0
1300003          35.00      0          0          0          0
1300102          33.80      0          0          0          0
1300103          38.00      0          0          0          0
1300104          35.60      0          0          0          0
1300105          37.00      0          0          0          0
1300106          56.00      0          0          0          0
1300203          36.10      0          0          0          0
1300204          33.00      0          0          0          0
1300205          37.20      0          0          0          0
1300206          73.90      0          0          0          0
1300304          35.10      0          0          0          0
1300305          67.50      0          0          0          0
1300306          95.00      0          0          0          0
1300405          81.40      0          0          0          0
1300406          193.00     0          0          0          0
1300505          82.70      0          0          0          0
1300506          216.30     0          0          0          0
1300606          290.00     0          0          0          0
1300706          208.00     0          0          0          0
1300806          219.00     0          0          0          0
1302005          36.00      0          0          0          0
1302006          40.90      0          0          0          0
1302013          32.00      0          0          0          0
1302014          33.50      0          0          0          0
1302015          35.80      0          0          0          0
1302306          93.80      0          0          0          0
1302406          165.00     0          0          0          0
1300000          32.00      0          0          0          0
1900002          40.80      0          0          0          0
1900004          69.50      0          0          0          0
1900006          40.00      0          0          0          0
1900008          82.30      0          0          0          0
1900010          104.60     0          0          0          0
1900012          109.00     0          0          0          0
1900014          150.50     0          0          0          0
1900016          147.80     0          0          0          0
1900018          139.80     0          0          0          0
1900020          131.80     0          0          0          0
1900102          66.00      0          0          0          0
1900104          80.00      0          0          0          0
1900106          39.50      0          0          0          0
1900108          80.80      0          0          0          0
1900114          151.50     0          0          0          0
1900116          150.00     0          0          0          0
1900118          155.50     0          0          0          0
1900120          152.50     0          0          0          0
1900202          72.50      0          0          0          0
1900204          83.80      0          0          0          0
1900206          42.80      0          0          0          0
1900214          153.50     0          0          0          0
1900216          153.30     0          0          0          0
1900218          151.00     0          0          0          0
1900302          83.80      0          0          0          0
1900304          82.80      0          0          0          0
1900306          90.00      0          0          0          0
1900310          138.00     0          0          0          0
1900312          133.70     0          0          0          0
1900314          151.00     0          0          0          0
1900316          152.90     0          0          0          0
1900318          151.50     0          0          0          0
1900402          97.50      0          0          0          0
1900406          98.00      0          0          0          0
1900412          139.50     0          0          0          0
1900414          151.50     0          0          0          0
1900418          152.50     0          0          0          0
1900502          104.50     0          0          0          0
1900510          150.80     0          0          0          0
1900512          151.40     0          0          0          0
1900518          152.50     0          0          0          0
1900602          107.80     0          0          0          0
1900610          150.90     0          0          0          0
1900702          109.80     0          0          0          0
1900706          116.80     0          0          0          0
1900710          151.20     0          0          0          0
1900806          122.80     0          0          0          0
1900810          150.70     0          0          0          0
1900910          150.40     0          0          0          0
1902002          113.80     0          0          0          0
1902010          150.00     0          0          0          0
1902102          115.30     0          0          0          0
1902302          118.30     0          0          0          0
1902402          119.80     0          0          0          0
1902502          120.80     0          0          0          0
1902602          121.80     0          0          0          0
1906008          45.00      0          0          0          0
1906010          48.00      0          0          0          0
1906011          51.00      0          0          0          0
5019590          24.00      0          0          0          0
100001           34.40      0          0          0          0
100002           41.80      0          0          0          0
100003           41.20      0          0          0          0
100005           189.50     0          0          0          0
100006           232.00     0          0          0          0
100007           266.00     0          0          0          0
100008           331.00     0          0          0          0
100009           352.00     0          0          0          0
100012           477.10     0          0          0          0
100020           41.30      0          0          0          0
100021           42.90      0          0          0          0
100022           45.50      0          0          0          0
100023           50.50      0          0          0          0
100025           87.40      0          0          0          0
100026           194.80     0          0          0          0
100027           251.00     0          0          0          0
100028           260.00     0          0          0          0
100029           356.00     0          0          0          0
100030           43.40      0          0          0          0
100031           44.30      0          0          0          0
100032           42.40      0          0          0          0
100040           117.40     0          0          0          0
100041           139.00     0          0          0          0
100050           66.50      0          0          0          0
100051           54.00      0          0          0          0
100052           97.00      0          0          0          0
100053           67.90      0          0          0          0
100060           356.00     0          0          0          0
100061           406.80     0          0          0          0
100062           367.70     0          0          0          0
100063           391.90     0          0          0          0
100070           313.00     0          0          0          0
100080           441.30     0          0          0          0
100081           532.50     0          0          0          0
100082           495.80     0          0          0          0
100090           220.00     0          0          0          0
100100           17.00      0          0          0          0
100102           47.10      0          0          0          0
100104           90.40      0          0          0          0
100105           191.50     0          0          0          0
100107           317.00     0          0          0          0
100109           359.00     0          0          0          0
100125           174.30     0          0          0          0
100126           249.80     0          0          0          0
100127           258.80     0          0          0          0
100128           270.00     0          0          0          0
100200           20.00      0          0          0          0
100209           360.00     0          0          0          0
100300           25.23      0          0          0          0
100306           253.00     0          0          0          0
100406           326.00     0          0          0          0
100409           367.00     0          0          0          0
100509           376.00     0          0          0          0
100609           376.00     0          0          0          0
102003           37.91      0          0          0          0
102101           38.80      0          0          0          0
102201           40.00      0          0          0          0
102402           54.00      0          0          0          0
102502           51.50      0          0          0          0
102602           63.00      0          0          0          0
106628           52.30      0          0          0          0
106629           48.00      0          0          0          0
106630           52.90      0          0          0          0
106631           63.80      0          0          0          0
102911           40.30      0          0          0          0
104003           30.00      0          0          0          0
104033           30.00      0          0          0          0
5001010          11.30      0          0          0          0
1802000          44.20      0          0          0          0
1802001          42.06      0          0          0          0
1802002          40.05      0          0          0          0