;; SWMM5 .inp converted from XPSWMM .xp file
;; Generated by XPSWMM Card Reader
;; Source format: XP_CARD | Original title: CIP 850, MAIZE ROAD AREA STORMWATER/SANITARY SEWER IMPROVEMENTS

[TITLE]
;;Project Title/Notes
CIP 850, MAIZE ROAD AREA STORMWATER/SANITARY SEWER IMPROVEMENTS

[OPTIONS]
FLOW_UNITS           CFS
INFILTRATION         HORTON
FLOW_ROUTING         DYNWAVE
LINK_OFFSETS         DEPTH
MIN_SLOPE            0.0
ALLOW_PONDING        NO
SKIP_STEADY_STATE    NO
ROUTING_STEP         00:00:05
VARIABLE_STEP        0.75
INERTIAL_DAMPING     NONE
NORMAL_FLOW_LIMITED  BOTH
MAX_TRIALS           6

[JUNCTIONS]
;;Name           Elev       MaxDepth   InitDepth  SurDepth   Aponded
;;-------------- ---------- ---------- ---------- ---------- ----------
0088T0115        857.87     0          0          0          0
0088T0062        855.55     0          0          0          0
0088T0013        854.30     0          0          0          0
0088T0060        859.19     0          0          0          0
0088T0134        861.84     0          0          0          0
0088T0138        863.68     0          0          0          0
0088T0068        860.90     0          0          0          0
0088T0496        859.84     0          0          0          0
0055T0387        852.41     0          0          0          0
0054T0394        843.00     0          0          0          0
0088T0016        859.08     0          0          0          0
0088T0015        858.94     0          0          0          0
0087T0561        842.07     0          0          0          0
0087T0214        844.00     0          0          0          0
0088T0497        859.91     0          0          0          0
0088T0674        860.26     0          0          0          0
0088T0292        860.87     0          0          0          0
0087T0489        848.43     0          0          0          0
0087T0560        845.66     0          0          0          0
0088T0830        863.65     0          0          0          0
0088T0831        861.12     0          0          0          0
0088T0133        860.39     0          0          0          0
0088T0832        859.33     0          0          0          0
0088T0676        860.35     0          0          0          0
0088T0069        858.67     0          0          0          0
0088T0014        856.71     0          0          0          0
0088T0103        856.79     0          0          0          0
0088T0104        855.50     0          0          0          0
0088T0494        860.77     0          0          0          0
0088T0495        859.39     0          0          0          0
0088T0023        854.10     0          0          0          0
0088T0022        852.18     0          0          0          0
0088T0102        858.90     0          0          0          0
0088T0012        852.95     0          0          0          0
0088T0147        861.94     0          0          0          0
0088T0148        864.36     0          0          0          0
0088T0140        860.77     0          0          0          0
0088T0009        850.77     0          0          0          0
0088T0116        857.02     0          0          0          0
0087T0218        860.25     0          0          0          0
0087T0217        861.30     0          0          0          0
0088T0139        862.09     0          0          0          0
0088T0135        860.30     0          0          0          0
0088T0066        861.05     0          0          0          0
0088T0829        854.30     0          0          0          0
0087T0212        847.94     0          0          0          0
0087T0211        847.59     0          0          0          0
0087T0213        843.61     0          0          0          0
0087T0210        847.64     0          0          0          0
0088T0003        853.13     0          0          0          0
0088T0002        852.41     0          0          0          0
0054T0399        842.50     0          0          0          0
0055T0411        851.95     0          0          0          0
0087T0200        846.60     0          0          0          0
0087T0197        841.15     0          0          0          0
0087T0196        839.98     0          0          0          0
0088T0063        852.23     0          0          0          0
0088T0067        863.07     0          0          0          0
0088T0001        850.15     0          0          0          0
0088T0055        853.26     0          0          0          0
0088T0061        856.78     0          0          0          0
0088T0058        854.73     0          0          0          0
0087T0191        837.13     0          0          0          0
0088T0059        856.54     0          0          0          0
0088T0828        858.29     0          0          0          0
0087T0186        835.46     0          0          0          0
0087T0215        844.62     0          0          0          0
0088T0114        859.30     0          0          0          0
0087T0216        855.33     0          0          0          0
0055T0410        852.41     0          0          0          0
0055T0414        852.41     0          0          0          0
0055T0416        852.41     0          0          0          0
0054T0373        846.50     0          0          0          0
0054T0372        850.20     0          0          0          0
0054T0369        853.00     0          0          0          0
0087T0172        843.30     0          0          0          0
0087T0434        846.50     0          0          0          0
0087T0439        850.46     0          0          0          0
0087T0222        847.15     0          0          0          0
0087T0473        853.98     0          0          0          0
0087T0501        853.46     0          0          0          0
0087T0498        850.85     0          0          0          0
0088T0088        854.37     0          0          0          0
0087T0174        841.23     0          0          0          0
0088T0101        855.54     0          0          0          0
0088T0100        854.27     0          0          0          0
0087T0228        856.75     0          0          0          0
0087T0230        856.58     0          0          0          0
0087T0471        854.33     0          0          0          0
0087T0472        853.25     0          0          0          0
0087T0233        855.50     0          0          0          0
0087T0512        858.47     0          0          0          0
0087T0503        854.88     0          0          0          0
0087T0453        856.08     0          0          0          0
0087T0454        851.53     0          0          0          0
0087T0509        857.90     0          0          0          0
0087T0508        853.93     0          0          0          0
0087T0749        850.77     0          0          0          0
0087T0495        850.48     0          0          0          0
0087T0220        843.80     0          0          0          0
0087T0221        845.20     0          0          0          0
0087T0448        849.21     0          0          0          0
0087T0441        844.54     0          0          0          0
0087T0431        844.62     0          0          0          0
0087T0438        847.81     0          0          0          0
0088T0524        856.78     0          0          0          0
0087T0227        842.54     0          0          0          0
0087T0232        843.97     0          0          0          0
0087T0782        841.55     0          0          0          0
0087T0780        853.20     0          0          0          0
0087T0781        853.70     0          0          0          0
0088T0089        856.80     0          0          0          0
0088T0090        857.39     0          0          0          0
0087T0506        853.85     0          0          0          0
0087T0505        852.68     0          0          0          0
0087T0219        845.60     0          0          0          0
0087T0223        847.82     0          0          0          0
0087T0456        850.04     0          0          0          0
0087R0433        845.95     0          0          0          0
0087T0492        848.26     0          0          0          0
0087T0159        839.26     0          0          0          0
0087T0231        842.10     0          0          0          0
0088T0808        857.81     0          0          0          0
0088T0562        857.25     0          0          0          0
0087T0229        855.28     0          0          0          0
0087T0735        850.83     0          0          0          0
0087T0430        843.00     0          0          0          0
0087T0224        862.85     0          0          0          0
0087T0225        861.62     0          0          0          0
0087T0226        859.67     0          0          0          0
0087T0156        836.40     0          0          0          0
0087T0154        838.60     0          0          0          0
0087T0142        840.12     0          0          0          0
0087T0786        839.70     0          0          0          0
0087T0149        842.86     0          0          0          0
0087T0144        844.80     0          0          0          0
0087T0778        840.00     0          0          0          0
0087T0141        842.00     0          0          0          0
0087T0140        843.40     0          0          0          0
0087T0139        843.40     0          0          0          0
0087T0138        844.00     0          0          0          0
0087T0137        845.00     0          0          0          0
0087T0136        824.00     0          0          0          0
0087T0113        829.00     0          0          0          0
RCS01            853.98     0          0          0          0
RCS02            854.80     0          0          0          0
0087R0419        850.46     0          0          0          0
0087R0423        848.87     0          0          0          0
0087R0418        850.50     0          0          0          0
0087R0415        853.20     0          0          0          0
0087R0414        852.30     0          0          0          0
0087R0413        852.90     0          0          0          0
0087R0408        853.50     0          0          0          0
0087T0338        846.43     0          0          0          0
0087R0422        850.13     0          0          0          0
0087R0447        852.78     0          0          0          0
0087R0461        855.44     0          0          0          0
0087R572         855.44     0          0          0          0
0087R0511        856.52     0          0          0          0
0088R0078        856.30     0          0          0          0
0088R0079        858.95     0          0          0          0
0088R0523        856.78     0          0          0          0
0088R0525        857.93     0          0          0          0
0088R0526        858.57     0          0          0          0
0088R0527        858.30     0          0          0          0
0087S0112        855.40     0          0          0          0

[CONDUITS]
;;Name           From             To               Length     Roughness  InOffset   OutOffset  InitFlow   MaxFlow
;;-------------- ---------------- ---------------- ---------- ---------- ---------- ---------- ---------- ----------
157822           0088T0016        0088T0015        313.10     0.0130     853.28     852.04     0          0
165381           0087T0561        0087T0214        48.00      0.0130     838.27     837.55     0          0
157875           0088T0497        0088T0674        48.20      0.0130     852.61     852.46     0          0
156567           0087T0489        0087T0560        327.10     0.0130     833.93     832.95     0          0
157571           0088T0830        0088T0831        183.40     0.0130     850.85     849.29     0          0
157948           0088T0133        0088T0832        300.30     0.0130     851.99     848.09     0          0
157874           0088T0496        0088T0497        219.20     0.0130     853.44     852.61     0          0
157883           0088T0676        0088T0069        304.70     0.0130     852.35     851.73     0          0
157824           0088T0015        0088T0014        281.60     0.0130     852.04     850.91     0          0
157773           0088T0103        0088T0104        378.80     0.0130     851.29     850.15     0          0
157858           0088T0494        0088T0495        374.20     0.0130     855.27     854.15     0          0
157809           0088T0023        0088T0022        323.85     0.0130     848.52     846.58     0          0
157828           0088T0014        0088T0013        316.70     0.0130     850.91     848.70     0          0
157767           0088T0102        0088T0103        330.00     0.0130     852.28     851.29     0          0
157564           0088T0148        0088T0140        154.30     0.0130     855.26     854.68     0          0
157866           0088T0495        0088T0496        115.30     0.0130     853.79     853.44     0          0
157830           0088T0013        0088T0012        294.25     0.0130     848.70     846.65     0          0
157811           0088T0022        0088T0009        264.10     0.0130     846.58     844.47     0          0
157522           0088T0115        0088T0116        339.70     0.0130     852.47     851.45     0          0
165375           0087T0218        0087T0217        134.00     0.0130     856.15     855.35     0          0
157544           0088T0140        0088T0139        335.90     0.0130     854.44     853.09     0          0
157563           0088T0147        0088T0148        125.80     0.0130     855.64     855.26     0          0
157938           0088T0135        0088T0134        354.50     0.0130     854.60     853.54     0          0
157618           0088T0292        0088T0068        284.30     0.0130     853.07     851.65     0          0
157940           0088T0134        0088T0133        355.70     0.0130     853.54     852.47     0          0
157885           0088T0674        0088T0676        61.10      0.0130     852.46     852.35     0          0
157573           0088T0831        0088T0066        36.00      0.0130     849.29     849.15     0          0
157790           0088T0104        0088T0829        297.30     0.0130     849.70     845.49     0          0
156569           0087T0560        0087T0212        36.00      0.0130     832.95     832.84     0          0
156571           0087T0212        0087T0211        164.50     0.0130     832.84     832.19     0          0
165372           0087T0213        0087T0211        370.00     0.0130     839.01     838.20     0          0
165388           0087T0214        0087T0210        192.00     0.0130     837.30     835.41     0          0
157800           0088T0003        0088T0002        304.00     0.0130     839.13     837.91     0          0
165356           0054T0399        0087T0210        268.00     0.0130     834.20     833.80     0          0
164138           0055T0411        0088T0002        269.60     0.0130     838.59     838.05     0          0
156573           0087T0211        0087T0210        187.50     0.0130     832.19     831.44     0          0
156574           0087T0210        0087T0200        258.80     0.0130     831.44     830.40     0          0
156556           0087T0197        0087T0196        353.00     0.0130     828.05     826.28     0          0
157845           0088T0063        0088T0062        330.00     0.0130     847.34     846.35     0          0
157899           0088T0068        0088T0067        610.50     0.0130     850.60     848.77     0          0
157759           0088T0001        0087T0489        574.00     0.0130     835.65     833.93     0          0
157758           0088T0002        0088T0001        333.80     0.0130     837.41     836.07     0          0
157904           0088T0067        0088T0066        292.00     0.0130     848.77     847.90     0          0
157799           0088T0055        0088T0003        330.80     0.0130     840.46     839.13     0          0
157891           0088T0069        0088T0068        289.90     0.0130     851.47     850.60     0          0
157911           0088T0066        0088T0060        306.60     0.0130     847.15     846.53     0          0
157918           0088T0060        0088T0061        320.00     0.0130     846.49     844.58     0          0
157550           0088T0139        0088T0138        379.30     0.0130     853.09     851.58     0          0
157625           0088T0058        0088T0061        273.40     0.0130     849.43     848.35     0          0
156558           0087T0196        0087T0191        310.80     0.0130     826.28     825.03     0          0
157552           0088T0138        0088T0830        339.40     0.0130     851.58     850.85     0          0
157925           0088T0061        0088T0062        295.70     0.0130     844.08     842.29     0          0
156554           0087T0200        0087T0197        373.20     0.0130     830.40     828.55     0          0
157817           0088T0009        0088T0002        64.50      0.0130     844.47     843.95     0          0
157835           0088T0012        0088T0003        40.75      0.0130     846.65     846.35     0          0
157880           0088T0829        0088T0062        38.00      0.0130     845.49     845.27     0          0
157796           0088T0062        0088T0055        298.90     0.0130     841.65     840.46     0          0
157623           0088T0059        0088T0060        273.50     0.0130     851.54     850.45     0          0
157533           0088T0116        0088T0828        331.50     0.0130     851.02     846.49     0          0
157532           0088T0828        0088T0061        36.00      0.0130     846.49     846.41     0          0
157951           0088T0832        0088T0060        36.00      0.0130     848.09     846.95     0          0
156560           0087T0191        0087T0186        311.30     0.0130     825.03     823.76     0          0
165371           0087T0215        0087T0213        362.00     0.0130     840.82     839.01     0          0
157516           0088T0114        0088T0115        368.50     0.0130     853.58     852.47     0          0
165379           0087T0216        0087T0561        196.00     0.0130     851.03     838.52     0          0
165377           0087T0217        0087T0216        182.00     0.0130     855.10     851.28     0          0
500001           0055T0387        0055T0410        300.00     0.0140     839.25     838.65     0          0
500002           0055T0410        0055T0411        30.40      0.0140     838.65     838.59     0          0
500004           0055T0416        0055T0414        328.00     0.0140     842.99     840.79     0          0
500003           0055T0414        0055T0410        320.00     0.0140     840.79     838.65     0          0
500005           0054T0394        0054T0399        245.00     0.0140     834.69     834.20     0          0
500008           0054T0369        0054T0372        240.00     0.0140     837.04     835.96     0          0
500007           0054T0372        0054T0373        390.00     0.0140     835.96     835.18     0          0
500006           0054T0373        0054T0394        245.00     0.0140     835.18     834.69     0          0
157586           0088T0101        0088T0100        328.00     0.0130     849.54     847.90     0          0
165599           0087T0228        0087T0230        84.00      0.0130     852.45     851.61     0          0
162529           0087T0471        0087T0472        344.60     0.0130     848.03     846.65     0          0
165588           0087T0233        0087T0230        68.00      0.0130     850.40     849.88     0          0
156957           0087T0512        0087T0503        371.86     0.0130     848.47     846.98     0          0
156929           0087T0453        0087T0454        350.30     0.0130     846.08     844.33     0          0
156958           0087T0503        0087T0501        329.50     0.0130     846.98     845.66     0          0
156943           0087T0509        0087T0508        343.40     0.0130     847.90     846.53     0          0
162517           0087T0749        0087T0495        230.00     0.0130     845.67     845.32     0          0
165362           0087T0220        0087T0221        78.00      0.0130     840.20     839.65     0          0
165581           0087T0441        0087T0431        28.00      0.0130     839.34     839.17     0          0
156920           0087T0448        0087T0438        455.60     0.0130     843.51     841.73     0          0
157584           0088T0524        0088T0101        368.40     0.0130     851.38     849.54     0          0
156784           0087T0495        0087T0498        129.30     0.0130     844.78     844.65     0          0
156880           0087T0227        0087T0232        160.00     0.0130     832.54     832.18     0          0
156882           0087T0172        0087T0782        173.90     0.0130     831.90     831.55     0          0
157016           0087T0780        0087T0781        121.00     0.0130     843.00     839.37     0          0
157605           0088T0089        0088T0088        333.00     0.0130     848.10     847.10     0          0
156944           0087T0508        0087T0506        315.50     0.0130     846.53     845.12     0          0
156792           0087T0498        0087T0505        176.50     0.0130     844.65     844.48     0          0
165603           0087T0434        0087T0227        312.30     0.0130     833.16     832.54     0          0
157604           0088T0090        0088T0089        333.00     0.0130     849.09     848.10     0          0
291.1            0088T0088        0087T0501        308.28     0.0130     845.87     844.96     0          0
157592           0088T0100        0088T0088        341.77     0.0130     847.37     846.34     0          0
165359           0087T0219        0087T0222        186.00     0.0130     842.20     841.27     0          0
165365           0087T0223        0087T0222        70.00      0.0130     843.72     843.30     0          0
165363           0087T0221        0087T0222        160.00     0.0130     839.40     838.60     0          0
156862           0087T0456        0087T0439        330.22     0.0130     836.54     834.86     0          0
137109           0087R0433        0087T0434        100.10     0.0130     834.45     834.32     0          0
162050           0087T0472        0087T0473        350.70     0.0130     846.65     845.25     0          0
156856           0087T0473        0087T0456        307.58     0.0130     838.63     837.10     0          0
156911           0087T0438        0087T0439        240.71     0.0130     841.51     840.55     0          0
156850           0087T0506        0087T0780        32.70      0.0130     843.07     843.00     0          0
157017           0087T0781        0087T0473        148.00     0.0130     839.37     838.66     0          0
156868           0087T0439        0087T0434        366.00     0.0130     834.99     833.27     0          0
156844           0087T0501        0087T0506        248.30     0.0130     844.96     844.07     0          0
156885           0087T0174        0087T0159        281.60     0.0130     830.33     828.36     0          0
157021           0087T0782        0087T0174        173.90     0.0130     831.55     830.33     0          0
156794           0087T0505        0087T0506        27.50      0.0130     844.48     844.45     0          0
165368           0087T0222        0087T0439        234.00     0.0130     838.35     836.48     0          0
156930           0087T0454        0087T0456        346.60     0.0130     844.33     842.60     0          0
165602           0087T0232        0087T0172        160.00     0.0130     832.18     831.90     0          0
165583           0087T0431        0087R0433        202.00     0.0130     838.92     837.51     0          0
165591           0087T0231        0087T0232        14.00      0.0130     838.50     838.08     0          0
157567           0088T0808        0088T0562        153.00     0.0130     853.21     852.75     0          0
156782           0087T0492        0087T0495        301.00     0.0130     845.36     845.00     0          0
157569           0088T0562        0088T0524        32.00      0.0130     852.65     852.55     0          0
165586           0087T0229        0087T0233        76.00      0.0130     851.18     850.40     0          0
162516           0087T0735        0087T0749        45.70      0.0130     845.73     845.67     0          0
165579           0087T0430        0087T0441        12.00      0.0130     839.40     839.34     0          0
165590           0087T0230        0087T0231        38.00      0.0130     849.88     838.50     0          0
165594           0087T0224        0087T0225        62.00      0.0130     858.75     857.57     0          0
165598           0087T0226        0087T0228        184.00     0.0130     855.37     852.70     0          0
165596           0087T0225        0087T0226        150.00     0.0130     857.32     855.62     0          0
500200           0087T0159        0087T0156        280.00     0.0140     828.36     827.24     0          0
500201           0087T0156        0087T0154        280.00     0.0140     827.24     825.28     0          0
500202           0087T0154        0087T0142        300.00     0.0140     825.28     824.08     0          0
500207           0087T0142        0087T0778        78.00      0.0140     821.84     821.21     0          0
500208           0087T0778        0087T0141        85.00      0.0140     821.21     820.53     0          0
500209           0087T0141        0087T0140        115.00     0.0140     820.53     819.61     0          0
500210           0087T0140        0087T0139        40.00      0.0140     819.61     819.61     0          0
500211           0087T0139        0087T0138        360.00     0.0140     819.61     818.17     0          0
500212           0087T0138        0087T0137        50.00      0.0140     818.17     817.97     0          0
500213           0087T0137        0087T0136        215.00     0.0140     817.97     813.67     0          0
500214           0087T0136        0087T0113        80.00      0.0140     813.67     812.07     0          0
500203           0087T0186        0087T0786        188.00     0.0140     823.76     822.82     0          0
500204           0087T0786        0087T0149        115.00     0.0140     822.82     822.25     0          0
500205           0087T0149        0087T0144        265.00     0.0140     822.25     822.02     0          0
500206           0087T0144        0087T0142        210.00     0.0140     822.02     821.84     0          0
600000           RCS01            0087T0473        15.00      0.0140     840.74     840.84     0          0
600001           RCS02            0088T0062        34.00      0.0140     845.14     844.97     0          0
600003           0087R0408        0087R0413        155.00     0.0140     838.82     838.35     0          0
600004           0087R0413        0087R0414        135.00     0.0140     838.35     837.95     0          0
600005           0087R0414        0087R0415        160.00     0.0140     837.95     837.47     0          0
600006           0087R0415        0087R0418        260.00     0.0140     837.47     836.68     0          0
600007           0087R0418        0087R0419        345.00     0.0140     836.68     835.65     0          0
600010           0087T0338        0087R0419        285.00     0.0140     836.79     835.65     0          0
600011           0088R0527        0088R0526        340.00     0.0140     845.32     844.30     0          0
600012           0088R0526        0088R0525        305.00     0.0140     844.30     843.39     0          0
600013           0088R0525        0088R0523        300.00     0.0140     843.39     842.49     0          0
600014           0088R0523        0088R0079        185.00     0.0140     842.49     841.93     0          0
600015           0088R0079        0088R0078        322.00     0.0140     841.93     840.97     0          0
600016           0088R0078        0087R0511        310.00     0.0140     840.97     840.04     0          0
600017           0087R0511        0087R572         310.00     0.0140     840.04     839.11     0          0
600018           0087R572         0087R0461        310.00     0.0140     839.11     838.18     0          0
600019           0087R0461        0087R0447        312.00     0.0140     838.18     837.24     0          0
600020           0087R0447        0087R0422        355.00     0.0140     837.24     836.17     0          0
600021           0087R0422        0087R0419        175.00     0.0140     836.17     835.65     0          0
600008           0087R0419        0087R0423        305.00     0.0140     835.65     835.04     0          0
600009           0087R0423        0087R0433        295.00     0.0140     835.04     834.45     0          0
600025           0087S0112        RCS02            125.00     0.0140     846.32     845.69     0          0

[XSECTIONS]
;;Link           Shape        Geom1      Geom2      Geom3      Geom4      Barrels
;;-------------- ------------ ---------- ---------- ---------- ---------- ----------
157822           CIRCULAR     1.25       0          0          0          1
165381           CIRCULAR     1.25       0          0          0          1
157875           CIRCULAR     2.50       0          0          0          1
156567           CIRCULAR     5.50       0          0          0          1
157571           CIRCULAR     2.00       0          0          0          1
157948           CIRCULAR     2.00       0          0          0          1
157874           CIRCULAR     2.50       0          0          0          1