;; SWMM5 .inp converted from XPSWMM .xp file
;; Generated by XPSWMM Card Reader
;; Source format: XP_CARD | Original title: Willamette Pre-Design Project | Joint Basin Plan Model

[TITLE]
;;Project Title/Notes
Willamette Pre-Design Project | Joint Basin Plan Model

[OPTIONS]
FLOW_UNITS           CFS
INFILTRATION         HORTON
FLOW_ROUTING         DYNWAVE
LINK_OFFSETS         DEPTH
MIN_SLOPE            0.0
ALLOW_PONDING        NO
SKIP_STEADY_STATE    NO
ROUTING_STEP         00:00:60
VARIABLE_STEP        0.75
INERTIAL_DAMPING     PARTIAL
NORMAL_FLOW_LIMITED  BOTH
MAX_TRIALS           4
HEAD_TOLERANCE       0.0033

[JUNCTIONS]
;;Name           Elev       MaxDepth   InitDepth  SurDepth   Aponded
;;-------------- ---------- ---------- ---------- ---------- ----------
1                30.00      0          0          0          0
2                31.00      0          0          0          0
3                33.50      0          0          0          0
4                34.50      0          0          0          0
5                35.80      0          0          0          0
7                38.80      0          0          0          0
8                39.80      0          0          0          0
9                40.80      0          0          0          0
10               39.80      0          0          0          0
11               38.80      0          0          0          0
13               40.80      0          0          0          0
14               42.80      0          0          0          0
15               42.80      0          0          0          0
16               43.30      0          0          0          0
17               43.80      0          0          0          0
18               44.80      0          0          0          0
19               46.80      0          0          0          0
20               51.80      0          0          0          0
21               56.80      0          0          0          0
22               63.80      0          0          0          0
23               69.80      0          0          0          0
24               77.80      0          0          0          0
25               86.30      0          0          0          0
26               100.40     0          0          0          0
27               106.20     0          0          0          0
28               108.40     0          0          0          0
29               110.40     0          0          0          0
30               122.45     0          0          0          0
31               123.85     0          0          0          0
32               125.93     0          0          0          0
33               127.90     0          0          0          0
34               129.60     0          0          0          0
35               135.00     0          0          0          0
37               142.80     0          0          0          0
38               145.80     0          0          0          0
40               164.30     0          0          0          0
41               156.70     0          0          0          0
42               158.20     0          0          0          0
43               163.00     0          0          0          0
44               167.00     0          0          0          0
45               172.70     0          0          0          0
51               33.20      0          0          0          0
53               42.30      0          0          0          0
54               45.00      0          0          0          0
55               43.30      0          0          0          0
56               32.50      0          0          0          0
52               37.80      0          0          0          0
206              39.30      0          0          0          0
108              41.80      0          0          0          0
209              40.80      0          0          0          0
114              47.30      0          0          0          0
117              45.80      0          0          0          0
118              55.00      0          0          0          0
119              96.80      0          0          0          0
120              99.80      0          0          0          0
134              139.80     0          0          0          0
136              145.80     0          0          0          0
137              143.80     0          0          0          0
139              153.80     0          0          0          0
140              150.80     0          0          0          0
141              170.00     0          0          0          0
153              48.00      0          0          0          0
154              50.00      0          0          0          0
207              50.00      0          0          0          0
211              39.80      0          0          0          0
212              40.80      0          0          0          0
214              53.30      0          0          0          0
217              47.80      0          0          0          0
220              147.00     0          0          0          0
234              149.00     0          0          0          0
236              143.00     0          0          0          0
237              148.80     0          0          0          0
240              154.80     0          0          0          0
406              42.80      0          0          0          0
317              51.00      0          0          0          0
319              70.20      0          0          0          0
320              78.30      0          0          0          0
340              155.80     0          0          0          0
507              57.80      0          0          0          0
409              50.00      0          0          0          0
412              49.00      0          0          0          0
440              159.80     0          0          0          0
531              137.00     0          0          0          0
532              140.75     0          0          0          0
533              133.80     0          0          0          0
534              140.00     0          0          0          0
535              140.00     0          0          0          0
707              85.30      0          0          0          0
740              165.80     0          0          0          0
807              46.80      0          0          0          0
3300301          58.80      0          0          0          0
3300044          46.80      0          0          0          0
3304005          75.70      0          0          0          0
3300201          56.00      0          0          0          0
3304003          47.00      0          0          0          0
3300106          77.00      0          0          0          0
3306507          49.50      0          0          0          0
3300204          45.80      0          0          0          0
3300206          85.00      0          0          0          0
3300322          64.80      0          0          0          0
3300304          46.60      0          0          0          0
3300422          65.80      0          0          0          0
3300404          47.80      0          0          0          0
3300522          64.80      0          0          0          0
3300504          48.60      0          0          0          0
3300722          51.80      0          0          0          0
3300702          55.20      0          0          0          0
2800146          97.00      0          0          0          0
2800104          106.80     0          0          0          0
2800106          144.30     0          0          0          0
2800108          130.00     0          0          0          0
2800110          136.80     0          0          0          0
2800112          141.80     0          0          0          0
2800114          139.80     0          0          0          0
2800116          72.80      0          0          0          0
2800118          76.50      0          0          0          0
2800202          85.00      0          0          0          0
2800204          116.80     0          0          0          0
2800206          150.90     0          0          0          0
2800208          135.60     0          0          0          0
2800210          137.30     0          0          0          0
2800260          100.00     0          0          0          0
2800222          87.00      0          0          0          0
2800302          96.00      0          0          0          0
2800304          124.30     0          0          0          0
2800306          150.70     0          0          0          0
2800308          136.20     0          0          0          0
2800310          137.80     0          0          0          0
2800404          130.80     0          0          0          0
2800406          147.30     0          0          0          0
2800410          136.80     0          0          0          0
2800504          125.80     0          0          0          0
2800506          148.90     0          0          0          0
2800510          138.80     0          0          0          0
2800604          126.80     0          0          0          0
2800606          149.80     0          0          0          0
2800610          139.50     0          0          0          0
2800704          129.80     0          0          0          0
2800706          150.80     0          0          0          0
2800710          140.30     0          0          0          0
2800804          135.80     0          0          0          0
2800806          151.80     0          0          0          0
2800810          142.80     0          0          0          0
2800904          137.80     0          0          0          0
2800906          155.80     0          0          0          0
2800910          145.80     0          0          0          0
2802106          158.80     0          0          0          0
2802110          147.80     0          0          0          0
2802206          165.80     0          0          0          0
2802210          151.80     0          0          0          0
3809000          54.00      0          0          0          0
3800010          56.00      0          0          0          0
3800020          53.00      0          0          0          0
3800030          58.00      0          0          0          0
3800040          57.00      0          0          0          0
3800050          52.00      0          0          0          0
3800060          48.00      0          0          0          0
3800070          52.00      0          0          0          0
3800080          50.00      0          0          0          0
3800090          53.00      0          0          0          0
3800100          47.00      0          0          0          0
3800110          49.00      0          0          0          0
3800120          55.00      0          0          0          0
3800130          137.00     0          0          0          0
3800140          135.00     0          0          0          0
3800150          137.00     0          0          0          0
3800160          137.00     0          0          0          0
3800170          151.50     0          0          0          0
3800180          149.00     0          0          0          0
3800190          160.00     0          0          0          0
3800200          175.00     0          0          0          0
4004217          112.60     0          0          0          0
4004317          118.20     0          0          0          0
4004417          124.00     0          0          0          0
4004517          131.10     0          0          0          0
4004617          147.00     0          0          0          0
4004717          155.00     0          0          0          0
4000003          55.00      0          0          0          0
4000005          61.00      0          0          0          0
4000006          54.00      0          0          0          0
4000007          65.00      0          0          0          0
4000008          57.00      0          0          0          0
4000009          52.00      0          0          0          0
4000010          49.50      0          0          0          0
4000013          54.80      0          0          0          0
4000016          64.00      0          0          0          0
4000017          85.50      0          0          0          0
4000020          54.00      0          0          0          0
4000021          91.00      0          0          0          0
4000023          60.10      0          0          0          0
4000026          96.00      0          0          0          0
4000033          70.00      0          0          0          0
4000037          200.00     0          0          0          0
4000041          130.50     0          0          0          0
4000047          90.00      0          0          0          0
4000053          174.00     0          0          0          0
4000063          243.80     0          0          0          0
4000067          111.00     0          0          0          0
4000077          133.00     0          0          0          0
4000087          139.00     0          0          0          0
4000103          56.50      0          0          0          0
4000105          65.00      0          0          0          0
4000106          65.00      0          0          0          0
4000107          80.00      0          0          0          0
4000108          61.00      0          0          0          0
4000110          55.00      0          0          0          0
4000111          74.00      0          0          0          0
4000116          66.00      0          0          0          0
4000117          102.50     0          0          0          0
4000120          55.00      0          0          0          0
4000123          56.80      0          0          0          0
4000126          95.00      0          0          0          0
4000127          152.00     0          0          0          0
4000131          135.00     0          0          0          0
4000133          100.00     0          0          0          0
4000137          219.00     0          0          0          0
4000143          162.00     0          0          0          0
4000147          97.60      0          0          0          0
4000153          190.00     0          0          0          0
4000157          245.00     0          0          0          0
4000163          245.80     0          0          0          0
4000167          125.00     0          0          0          0
4000201          60.00      0          0          0          0
4000203          63.00      0          0          0          0
4000205          65.00      0          0          0          0
4000206          77.00      0          0          0          0
4000208          68.00      0          0          0          0
4000210          57.50      0          0          0          0
4000211          90.50      0          0          0          0
4000216          76.00      0          0          0          0
4000217          110.50     0          0          0          0
4000220          54.00      0          0          0          0
4000221          113.00     0          0          0          0
4000223          57.00      0          0          0          0
4000227          161.50     0          0          0          0
4000233          122.30     0          0          0          0
4000237          230.00     0          0          0          0
4000243          176.90     0          0          0          0
4000247          105.00     0          0          0          0
4000251          133.70     0          0          0          0
4000253          221.00     0          0          0          0
4000257          242.00     0          0          0          0
4000263          245.00     0          0          0          0
4000277          128.00     0          0          0          0
4000300          56.00      0          0          0          0
4000305          69.00      0          0          0          0
4000307          90.00      0          0          0          0
4000308          79.00      0          0          0          0
4000310          65.00      0          0          0          0
4000311          105.00     0          0          0          0
4000317          114.50     0          0          0          0
4000320          65.00      0          0          0          0
4000321          123.00     0          0          0          0
4000323          58.40      0          0          0          0
4000326          94.00      0          0          0          0
4000333          111.70     0          0          0          0
4000337          234.00     0          0          0          0
4000343          201.00     0          0          0          0
4000347          116.00     0          0          0          0
4000351          132.30     0          0          0          0
4000353          226.00     0          0          0          0
4000357          243.00     0          0          0          0
4000363          246.00     0          0          0          0
4000400          55.00      0          0          0          0
4000683          130.00     0          0          0          0
4000405          76.00      0          0          0          0
4000406          97.00      0          0          0          0
4000407          96.90      0          0          0          0
4000410          76.50      0          0          0          0
4000411          110.50     0          0          0          0
4000417          118.00     0          0          0          0
4000420          66.20      0          0          0          0
4000426          95.00      0          0          0          0
4000433          115.80     0          0          0          0
4000437          237.00     0          0          0          0
4000443          224.00     0          0          0          0
4000447          123.00     0          0          0          0
4000451          131.00     0          0          0          0
4000457          244.00     0          0          0          0
4000463          248.00     0          0          0          0
4000500          56.00      0          0          0          0
4000505          80.00      0          0          0          0
4000506          98.60      0          0          0          0
4000507          114.00     0          0          0          0
4000510          88.00      0          0          0          0
4000511          113.50     0          0          0          0
4000517          126.00     0          0          0          0
4000520          70.50      0          0          0          0
4000526          97.50      0          0          0          0
4000533          122.00     0          0          0          0
4000543          233.00     0          0          0          0
4000547          141.50     0          0          0          0
4000557          245.00     0          0          0          0
4000563          251.50     0          0          0          0
4000603          166.00     0          0          0          0
4000606          100.20     0          0          0          0
4000607          135.00     0          0          0          0
4000611          123.00     0          0          0          0
4000617          134.00     0          0          0          0
4000620          73.00      0          0          0          0
4000626          93.50      0          0          0          0
4000633          126.60     0          0          0          0
4000643          237.00     0          0          0          0
4000647          165.00     0          0          0          0
4000663          250.00     0          0          0          0
4000703          236.20     0          0          0          0
4000707          145.00     0          0          0          0
4000717          135.00     0          0          0          0
4000720          77.80      0          0          0          0
4000726          92.50      0          0          0          0
4000733          130.00     0          0          0          0
4000743          238.00     0          0          0          0
4000763          251.80     0          0          0          0
4000803          238.00     0          0          0          0
4000811          129.00     0          0          0          0
4000817          139.00     0          0          0          0
4000820          82.00      0          0          0          0
4000833          139.50     0          0          0          0
4000843          238.50     0          0          0          0
4000847          200.00     0          0          0          0
4000863          254.00     0          0          0          0
4000903          239.40     0          0          0          0
4000911          129.50     0          0          0          0
4000917          186.00     0          0          0          0
4000920          84.00      0          0          0          0
4000943          239.00     0          0          0          0
4000947          238.50     0          0          0          0
4002003          241.00     0          0          0          0
4002011          130.00     0          0          0          0
4002013          55.00      0          0          0          0
4002120          89.60      0          0          0          0
4002033          84.50      0          0          0          0
4002043          150.00     0          0          0          0
4002103          243.50     0          0          0          0
4002111          144.00     0          0          0          0
4002133          100.00     0          0          0          0
4002203          241.50     0          0          0          0
4002211          150.00     0          0          0          0
4002303          242.00     0          0          0          0
4002403          243.00     0          0          0          0
4004433          75.00      0          0          0          0
4002943          240.00     0          0          0          0
4000004          59.00      0          0          0          0
4000104          63.00      0          0          0          0
4001043          72.00      0          0          0          0
4001044          84.90      0          0          0          0
4000027          142.00     0          0          0          0
4000272          162.00     0          0          0          0
4000273          182.00     0          0          0          0
4000036          100.40     0          0          0          0
4000361          102.00     0          0          0          0
4000362          116.00     0          0          0          0
4000051          132.40     0          0          0          0
4000512          133.00     0          0          0          0
4000513          152.00     0          0          0          0
4000057          157.40     0          0          0          0
4000572          172.50     0          0          0          0
4000573          217.00     0          0          0          0
4000136          99.30      0          0          0          0
4001362          104.00     0          0          0          0
4001363          112.00     0          0          0          0
4000141          131.00     0          0          0          0
4001412          132.00     0          0          0          0
4000151          135.00     0          0          0          0
4001512          131.50     0          0          0          0
4001513          136.00     0          0          0          0
4000177          139.00     0          0          0          0
4001772          144.00     0          0          0          0
4001773          215.00     0          0          0          0
4000187          140.00     0          0          0          0
4001872          143.00     0          0          0          0
4001873          213.00     0          0          0          0
4000236          98.00      0          0          0          0
4002362          105.00     0          0          0          0
4002363          110.00     0          0          0          0
4000287          227.50     0          0          0          0
4002872          239.70     0          0          0          0
4002873          246.00     0          0          0          0
4002874          249.00     0          0          0          0
4003061          89.00      0          0          0          0
4003062          87.00      0          0          0          0
4000306          85.00      0          0          0          0
4003064          89.00      0          0          0          0
4000316          70.00      0          0          0          0
4003162          73.00      0          0          0          0
4003163          71.00      0          0          0          0
4000336          97.00      0          0          0          0
4003362          106.00     0          0          0          0
4003363          109.00     0          0          0          0
4000436          99.50      0          0          0          0
4004362          103.50     0          0          0          0
4004363          110.00     0          0          0          0
4000711          127.60     0          0          0          0
4007112          130.00     0          0          0          0
4000807          228.00     0          0          0          0
4008072          236.70     0          0          0          0
4008073          248.00     0          0          0          0
4002220          89.00      0          0          0          0
4022202          92.50      0          0          0          0
4022203          96.00      0          0          0          0
4002320          88.40      0          0          0          0
4002503          242.00     0          0          0          0
4025032          244.50     0          0          0          0
4025033          247.50     0          0          0          0
4100010          94.40      0          0          0          0
4100001          84.60      0          0          0          0
4100002          90.00      0          0          0          0
4100003          116.20     0          0          0          0
4100004          123.70     0          0          0          0
4100012          92.70      0          0          0          0
4100013          117.00     0          0          0          0
4100021          69.10      0          0          0          0
4100022          98.70      0          0          0          0
4100023          117.80     0          0          0          0
4100032          97.00      0          0          0          0
4100033          118.50     0          0          0          0
4100042          98.50      0          0          0          0
4100043          118.60     0          0          0          0
4100052          110.00     0          0          0          0
4100053          119.20     0          0          0          0
4100062          108.70     0          0          0          0
4100063          112.20     0          0          0          0
4100073          114.40     0          0          0          0
4100082          108.00     0          0          0          0
4100083          112.20     0          0          0          0
4100092          103.30     0          0          0          0
4100093          86.00      0          0          0          0
4100102          103.00     0          0          0          0
4100103          78.00      0          0          0          0
4100112          108.30     0          0          0          0
4100113          76.50      0          0          0          0
4102031          72.00      0          0          0          0
4102041          73.80      0          0          0          0
4102051          79.50      0          0          0          0
4102061          85.00      0          0          0          0
4102071          75.00      0          0          0          0
4102072          106.50     0          0          0          0
4102133          71.20      0          0          0          0
4104143          73.10      0          0          0          0
3900010          214.00     0          0          0          0
3900011          215.60     0          0          0          0
3900012          215.50     0          0          0          0
3900013          216.80     0          0          0          0
3900014          218.10     0          0          0          0
3900015          219.20     0          0          0          0
3900016          218.80     0          0          0          0
3900017          219.90     0          0          0          0
3900018          221.30     0          0          0          0
3900019          220.50     0          0          0          0
3900020          224.00     0          0          0          0
3900022          227.30     0          0          0          0
3900023          229.50     0          0          0          0
3900024          225.50     0          0          0          0
3900025          229.30     0          0          0          0
3900026          230.00     0          0          0          0
3900027          230.00     0          0          0          0
3900028          229.70     0          0          0          0
3900029          230.00     0          0          0          0
3900030          229.80     0          0          0          0
3900031          230.00     0          0          0          0
3900032          229.60     0          0          0          0
3900033          229.50     0          0          0          0
3900034          230.00     0          0          0          0