;; SWMM5 .inp converted from XPSWMM .xp file
;; Generated by XPSWMM Card Reader
;; Source format: XP_CARD | Original title: Three Rivers, Michigan Average Day Simulation

[TITLE]
;;Project Title/Notes
Three Rivers, Michigan Average Day Simulation

[OPTIONS]
FLOW_UNITS           CFS
INFILTRATION         HORTON
FLOW_ROUTING         DYNWAVE
LINK_OFFSETS         DEPTH
MIN_SLOPE            0.0
ALLOW_PONDING        NO
SKIP_STEADY_STATE    NO
ROUTING_STEP         00:00:300
VARIABLE_STEP        0.75
INERTIAL_DAMPING     PARTIAL
NORMAL_FLOW_LIMITED  BOTH

[JUNCTIONS]
;;Name           Elev       MaxDepth   InitDepth  SurDepth   Aponded
;;-------------- ---------- ---------- ---------- ---------- ----------
2                794.00     0          0          0          0
3                803.00     0          0          0          0
5                805.00     0          0          0          0
7                805.00     0          0          0          0
9                793.00     0          0          0          0
11               798.50     0          0          0          0
13               788.10     0          0          0          0
15               792.00     0          0          0          0
17               792.00     0          0          0          0
19               808.20     0          0          0          0
21               811.00     0          0          0          0
23               811.50     0          0          0          0
25               809.90     0          0          0          0
27               812.50     0          0          0          0
29               812.50     0          0          0          0
31               812.50     0          0          0          0
33               810.50     0          0          0          0
36               812.50     0          0          0          0
38               810.70     0          0          0          0
40               812.50     0          0          0          0
42               812.60     0          0          0          0
44               812.67     0          0          0          0
46               815.67     0          0          0          0
63               824.00     0          0          0          0
64               822.70     0          0          0          0
66               820.00     0          0          0          0
68               821.60     0          0          0          0
70               823.00     0          0          0          0
72               814.00     0          0          0          0
74               814.00     0          0          0          0
76               814.00     0          0          0          0
78               819.70     0          0          0          0
79               819.40     0          0          0          0
81               819.60     0          0          0          0
83               819.60     0          0          0          0
85               819.00     0          0          0          0
87               819.00     0          0          0          0
89               818.10     0          0          0          0
91               818.00     0          0          0          0
93               817.80     0          0          0          0
95               817.80     0          0          0          0
97               817.60     0          0          0          0
99               817.40     0          0          0          0
101              817.70     0          0          0          0
103              817.50     0          0          0          0
105              816.80     0          0          0          0
107              816.90     0          0          0          0
109              816.80     0          0          0          0
111              816.00     0          0          0          0
113              815.50     0          0          0          0
115              815.00     0          0          0          0
117              815.00     0          0          0          0
119              813.80     0          0          0          0
121              813.60     0          0          0          0
123              813.50     0          0          0          0
126              800.90     0          0          0          0
127              802.80     0          0          0          0
129              803.80     0          0          0          0
131              804.90     0          0          0          0
133              802.60     0          0          0          0
135              799.20     0          0          0          0
137              798.00     0          0          0          0
139              799.80     0          0          0          0
141              799.60     0          0          0          0
143              786.00     0          0          0          0
146              804.80     0          0          0          0
147              806.00     0          0          0          0
149              802.00     0          0          0          0
151              799.30     0          0          0          0
153              796.20     0          0          0          0
155              810.30     0          0          0          0
156              808.10     0          0          0          0
158              807.36     0          0          0          0
160              809.36     0          0          0          0
162              808.36     0          0          0          0
164              807.76     0          0          0          0
166              808.06     0          0          0          0
168              807.46     0          0          0          0
170              807.86     0          0          0          0
172              807.30     0          0          0          0
174              803.20     0          0          0          0
177              820.12     0          0          0          0
178              821.46     0          0          0          0
180              820.12     0          0          0          0
182              816.14     0          0          0          0
184              813.90     0          0          0          0
186              813.10     0          0          0          0
188              813.23     0          0          0          0
190              812.47     0          0          0          0
192              811.50     0          0          0          0
194              812.50     0          0          0          0
196              811.59     0          0          0          0
198              811.65     0          0          0          0
200              811.50     0          0          0          0
202              812.00     0          0          0          0
204              798.70     0          0          0          0
206              800.80     0          0          0          0
208              801.70     0          0          0          0
210              802.70     0          0          0          0
212              796.00     0          0          0          0
214              796.00     0          0          0          0
216              796.00     0          0          0          0
218              798.00     0          0          0          0
220              792.60     0          0          0          0
222              792.40     0          0          0          0
224              801.00     0          0          0          0
226              797.80     0          0          0          0
228              797.20     0          0          0          0
230              791.00     0          0          0          0
232              788.50     0          0          0          0
234              788.60     0          0          0          0
236              789.10     0          0          0          0
238              790.20     0          0          0          0
240              790.80     0          0          0          0
242              788.80     0          0          0          0
244              791.30     0          0          0          0
246              791.30     0          0          0          0
248              794.00     0          0          0          0
250              794.00     0          0          0          0
252              794.03     0          0          0          0
254              795.00     0          0          0          0
256              800.80     0          0          0          0
257              800.60     0          0          0          0
259              802.40     0          0          0          0
261              798.30     0          0          0          0
263              798.00     0          0          0          0
265              799.80     0          0          0          0
268              822.00     0          0          0          0
269              821.00     0          0          0          0
271              805.00     0          0          0          0
273              801.00     0          0          0          0
275              800.00     0          0          0          0
277              800.00     0          0          0          0
279              799.00     0          0          0          0
281              799.00     0          0          0          0
283              799.00     0          0          0          0
285              792.20     0          0          0          0
288              795.00     0          0          0          0
290              794.50     0          0          0          0
292              796.00     0          0          0          0
295              820.40     0          0          0          0
296              822.40     0          0          0          0
298              820.90     0          0          0          0
300              820.80     0          0          0          0
302              819.90     0          0          0          0
304              821.20     0          0          0          0
306              821.40     0          0          0          0
308              821.40     0          0          0          0
310              821.40     0          0          0          0
312              822.00     0          0          0          0
314              822.70     0          0          0          0
315              820.10     0          0          0          0
317              818.90     0          0          0          0
319              820.40     0          0          0          0
321              821.40     0          0          0          0
327              822.00     0          0          0          0
328              822.00     0          0          0          0
330              821.00     0          0          0          0
332              821.00     0          0          0          0
334              821.00     0          0          0          0
336              821.00     0          0          0          0
338              819.00     0          0          0          0
340              819.00     0          0          0          0
342              820.00     0          0          0          0
344              820.00     0          0          0          0
346              819.00     0          0          0          0
348              818.00     0          0          0          0
350              820.00     0          0          0          0
351              820.00     0          0          0          0
354              823.30     0          0          0          0
355              822.30     0          0          0          0
357              820.78     0          0          0          0
360              802.00     0          0          0          0
362              793.00     0          0          0          0
364              791.01     0          0          0          0
366              790.74     0          0          0          0
368              791.00     0          0          0          0
370              790.17     0          0          0          0
372              789.14     0          0          0          0
374              789.28     0          0          0          0
376              792.40     0          0          0          0
378              788.00     0          0          0          0
380              789.50     0          0          0          0
383              817.00     0          0          0          0
384              817.00     0          0          0          0
386              817.00     0          0          0          0
388              817.00     0          0          0          0
390              817.00     0          0          0          0
392              817.00     0          0          0          0
394              802.20     0          0          0          0
396              802.20     0          0          0          0
398              802.00     0          0          0          0
400              788.00     0          0          0          0
403              805.60     0          0          0          0
404              804.00     0          0          0          0
406              804.20     0          0          0          0
408              799.60     0          0          0          0
412              824.00     0          0          0          0
414              793.00     0          0          0          0
424              793.00     0          0          0          0
426              793.00     0          0          0          0
428              809.00     0          0          0          0
430              805.00     0          0          0          0
434              812.00     0          0          0          0
436              821.20     0          0          0          0
438              821.20     0          0          0          0
443              795.00     0          0          0          0
445              795.00     0          0          0          0
450              796.50     0          0          0          0
452              796.50     0          0          0          0
459              0          0          0          0          0
461              814.00     0          0          0          0

[CONDUITS]
;;Name           From             To               Length     Roughness  InOffset   OutOffset  InitFlow   MaxFlow
;;-------------- ---------------- ---------------- ---------- ---------- ---------- ---------- ---------- ----------
18               15               17               336.00     0.0140     783.85     784.59     0          0
37               33               36               715.00     0.0140     794.00     796.03     0          0
39               36               38               60.00      0.0140     796.03     796.09     0          0
41               38               40               354.00     0.0140     796.09     796.63     0          0
43               40               42               320.00     0.0140     796.63     797.29     0          0
45               42               44               400.00     0.0140     797.29     797.89     0          0
47               44               46               400.00     0.0140     797.89     798.49     0          0
49               31               29               204.00     0.0140     797.05     796.97     0          0
50               29               27               115.00     0.0140     796.97     796.40     0          0
51               25               23               323.00     0.0140     803.00     802.00     0          0
52               23               21               346.00     0.0140     794.36     793.27     0          0
53               21               19               316.00     0.0140     793.27     792.30     0          0
20               19               11               310.00     0.0140     792.30     782.59     0          0
14               13               11               242.00     0.0140     783.21     782.59     0          0
16               15               13               278.00     0.0140     783.85     783.21     0          0
8                7                5                350.00     0.0140     794.00     791.79     0          0
6                5                3                310.00     0.0140     791.79     791.14     0          0
4                3                2                275.00     0.0140     791.14     790.83     0          0
10               9                2                170.00     0.0140     776.83     776.59     0          0
12               11               9                200.00     0.0140     782.59     782.19     0          0
65               63               64               400.00     0.0140     806.20     805.60     0          0
67               64               66               360.00     0.0140     805.60     805.00     0          0
69               66               68               550.00     0.0140     805.00     804.40     0          0
71               68               70               246.00     0.0140     804.40     803.80     0          0
73               70               72               362.00     0.0140     803.80     803.20     0          0
75               72               74               362.00     0.0140     803.20     802.60     0          0
77               74               76               310.00     0.0140     802.60     802.30     0          0
80               78               79               465.00     0.0140     810.65     809.99     0          0
82               79               81               285.00     0.0140     809.99     809.52     0          0
84               81               83               296.00     0.0140     809.52     809.08     0          0
86               83               85               226.00     0.0140     809.08     808.73     0          0
88               85               87               240.00     0.0140     808.73     808.37     0          0
90               87               89               236.00     0.0140     808.37     808.01     0          0
92               89               91               240.00     0.0140     808.01     807.65     0          0
94               91               93               450.00     0.0140     807.65     806.98     0          0
96               93               95               300.00     0.0140     806.98     806.68     0          0
98               95               97               230.00     0.0140     806.68     806.21     0          0
100              97               99               378.00     0.0140     806.21     805.63     0          0
102              99               101              225.00     0.0140     805.63     805.30     0          0
104              101              103              316.00     0.0140     805.30     802.01     0          0
106              103              105              300.00     0.0140     802.01     801.49     0          0
108              105              107              370.00     0.0140     801.49     801.00     0          0
110              107              109              370.00     0.0140     801.00     800.36     0          0
112              109              111              390.00     0.0140     800.36     799.82     0          0
114              111              113              356.00     0.0140     799.82     799.27     0          0
116              113              115              380.00     0.0140     799.27     798.70     0          0
118              115              117              210.00     0.0140     798.70     798.36     0          0
120              117              119              188.00     0.0140     798.36     798.01     0          0
122              119              121              425.00     0.0140     798.01     797.50     0          0
124              121              123              280.00     0.0140     797.50     797.05     0          0
125              123              40               275.00     0.0140     797.05     796.63     0          0
128              126              127              360.00     0.0140     797.32     796.80     0          0
130              127              129              366.00     0.0140     796.80     796.30     0          0
132              129              131              380.00     0.0140     796.30     795.78     0          0
134              131              133              184.00     0.0140     795.78     794.84     0          0
136              133              135              180.00     0.0140     794.84     793.30     0          0
138              135              137              320.00     0.0140     793.30     792.56     0          0
140              137              139              415.00     0.0140     792.56     791.70     0          0
142              139              141              200.00     0.0140     791.70     790.85     0          0
144              141              143              230.00     0.0140     790.85     777.63     0          0
145              143              9                282.00     0.0140     777.63     776.83     0          0
148              146              147              270.00     0.0140     797.50     796.70     0          0
150              147              149              454.00     0.0140     796.70     795.30     0          0
152              149              151              366.00     0.0140     791.65     790.60     0          0
154              151              153              360.00     0.0140     790.60     789.40     0          0
157              155              156              333.00     0.0140     802.85     801.80     0          0
159              156              158              340.00     0.0140     801.80     801.26     0          0
161              158              160              365.00     0.0140     801.26     800.72     0          0
163              160              162              367.00     0.0140     800.72     800.18     0          0
165              162              164              360.00     0.0140     800.18     799.64     0          0
167              164              166              375.00     0.0140     799.64     799.08     0          0
169              166              168              265.00     0.0140     799.08     798.82     0          0
171              168              170              365.00     0.0140     798.82     798.46     0          0
173              170              172              143.00     0.0140     798.46     798.30     0          0
175              172              174              214.00     0.0140     798.30     796.07     0          0
176              174              131              365.00     0.0140     796.07     795.78     0          0
179              177              178              292.00     0.0140     808.88     808.28     0          0
181              178              180              297.00     0.0140     808.28     807.88     0          0
183              180              182              150.00     0.0140     807.88     806.93     0          0
185              182              184              327.00     0.0140     806.93     806.03     0          0
187              184              186              300.00     0.0140     806.03     805.54     0          0
189              186              188              218.00     0.0140     805.54     805.24     0          0
191              188              190              171.00     0.0140     805.24     804.74     0          0
193              190              192              183.00     0.0140     804.74     804.70     0          0
195              192              194              139.00     0.0140     804.70     803.50     0          0
197              194              196              94.00      0.0140     803.50     803.05     0          0
199              196              198              250.00     0.0140     803.05     802.50     0          0
201              198              200              328.00     0.0140     802.50     801.60     0          0
203              200              202              754.00     0.0140     800.58     797.30     0          0
205              202              204              576.00     0.0140     797.30     795.50     0          0
207              204              206              193.00     0.0140     794.46     793.60     0          0
209              206              208              279.00     0.0140     793.60     793.00     0          0
211              208              210              163.00     0.0140     793.00     792.27     0          0
213              210              212              225.00     0.0140     792.27     791.57     0          0
215              212              214              225.00     0.0140     791.57     790.88     0          0
217              214              216              355.00     0.0140     790.88     789.81     0          0
219              216              218              434.00     0.0140     789.81     788.50     0          0
221              218              220              283.00     0.0140     785.81     785.21     0          0
223              220              222              294.00     0.0140     785.21     784.75     0          0
225              222              224              233.00     0.0140     784.75     784.15     0          0
227              224              226              197.00     0.0140     784.15     783.77     0          0
229              226              228              55.00      0.0140     783.77     783.66     0          0
231              228              230              262.00     0.0140     783.66     783.12     0          0
233              230              232              217.00     0.0140     783.12     782.62     0          0
235              232              234              170.00     0.0140     782.62     782.12     0          0
237              234              236              163.00     0.0140     782.12     781.46     0          0
239              236              238              322.00     0.0140     781.46     781.32     0          0
241              238              240              305.00     0.0140     781.32     780.72     0          0
243              240              242              112.00     0.0140     780.72     780.46     0          0
245              242              244              200.00     0.0140     780.46     779.98     0          0
247              244              246              70.00      0.0140     779.98     779.84     0          0
249              246              248              370.00     0.0140     779.84     779.12     0          0
251              248              250              178.00     0.0140     779.12     778.77     0          0
253              250              252              200.00     0.0140     778.77     778.35     0          0
255              252              254              230.00     0.0140     774.91     774.00     0          0
258              256              257              172.00     0.0140     796.50     796.00     0          0
260              257              259              218.00     0.0140     796.00     794.90     0          0
262              259              261              407.00     0.0140     794.90     793.59     0          0
264              261              263              224.00     0.0140     793.59     792.56     0          0
266              263              265              257.00     0.0140     792.56     791.80     0          0
267              265              141              198.00     0.0140     791.80     790.85     0          0
270              268              269              360.00     0.0140     809.00     808.10     0          0
272              269              271              140.00     0.0140     808.10     796.00     0          0
274              271              273              293.00     0.0140     796.00     794.50     0          0
276              273              275              196.00     0.0140     794.50     793.80     0          0
278              275              277              544.00     0.0140     793.80     793.00     0          0
280              277              279              364.00     0.0140     793.00     791.70     0          0
282              279              281              234.00     0.0140     791.70     790.50     0          0
284              281              283              315.00     0.0140     790.50     790.20     0          0
289              285              288              48.00      0.0140     787.12     787.04     0          0
291              288              290              132.00     0.0140     787.04     786.24     0          0
293              290              292              68.00      0.0140     786.24     785.34     0          0
294              292              228              177.00     0.0140     785.34     783.66     0          0
297              295              296              277.00     0.0140     810.78     810.46     0          0
299              296              298              277.00     0.0140     810.26     809.50     0          0
301              298              300              324.00     0.0140     809.40     808.44     0          0
303              300              302              344.00     0.0140     808.44     807.41     0          0
305              302              304              317.00     0.0140     807.41     806.64     0          0
307              304              306              341.00     0.0140     806.64     805.94     0          0
309              306              308              253.00     0.0140     804.82     804.32     0          0
311              308              310              270.00     0.0140     804.32     803.78     0          0
313              310              312              143.00     0.0140     803.78     803.48     0          0
316              314              315              505.00     0.0140     811.55     809.99     0          0
318              315              317              359.00     0.0140     809.99     808.94     0          0
320              317              319              389.00     0.0140     808.94     807.65     0          0