;; SWMM5 .inp converted from XPSWMM .xp file
;; Generated by XPSWMM Card Reader
;; Source format: XP_CARD | Original title: (none)

[TITLE]
;;Project Title/Notes
Converted from XPSWMM .xp file

[OPTIONS]
FLOW_UNITS           CFS
INFILTRATION         HORTON
FLOW_ROUTING         DYNWAVE
LINK_OFFSETS         DEPTH
MIN_SLOPE            0.0
ALLOW_PONDING        NO
SKIP_STEADY_STATE    NO
ROUTING_STEP         00:00:15
VARIABLE_STEP        0.75
INERTIAL_DAMPING     NONE
NORMAL_FLOW_LIMITED  BOTH
MAX_TRIALS           50
HEAD_TOLERANCE       0.0033

[JUNCTIONS]
;;Name           Elev       MaxDepth   InitDepth  SurDepth   Aponded
;;-------------- ---------- ---------- ---------- ---------- ----------
FHC002055N       861.60     0          0          0          0
FHC003070N       858.40     0          0          0          0
FHC046007N       821.50     0          0          0          0
FHC047014N       791.20     0          0          0          0
FHC050CMCN       769.00     0          0          0          0
FHC051019N       746.24     0          0          0          0
FHC052089N       714.30     0          0          0          0
FHC051005N       736.30     0          0          0          0
FHC094046N       712.60     0          0          0          0
FHC095048N       698.00     0          0          0          0
FHC095038N       691.50     0          0          0          0
FHC098037N       687.80     0          0          0          0
FHC099049N       668.20     0          0          0          0
FHC142070N       668.60     0          0          0          0
FHC142003N       661.80     0          0          0          0
FHC141049N       657.50     0          0          0          0
WBT127002N       877.93     0          0          0          0
FHC018069N       883.00     0          0          0          0
FHC024047N       911.20     0          0          0          0
FHC018062N       910.20     0          0          0          0
FHC018066N       877.60     0          0          0          0
FHC017026N       878.50     0          0          0          0
FHC015062N       869.20     0          0          0          0
FHC034002N       866.00     0          0          0          0
FHC029018N       875.80     0          0          0          0
FHC033055N       866.80     0          0          0          0
FHC033063N       859.40     0          0          0          0
FHC033067N       861.50     0          0          0          0
FHC033009N       870.00     0          0          0          0
FHC017005N       924.80     0          0          0          0
FHC014052N       882.80     0          0          0          0
FHC013020N       870.50     0          0          0          0
FHC011016N       861.20     0          0          0          0
FHC011034N       857.10     0          0          0          0
FHC009070N       888.50     0          0          0          0
FHC009020N       871.70     0          0          0          0
FHC012008N       860.00     0          0          0          0
FHC007040N       838.60     0          0          0          0
FHC008023N       858.50     0          0          0          0
FHC008028N       830.70     0          0          0          0
FHC041001N       819.00     0          0          0          0
FHC055024N       763.60     0          0          0          0
FHC056035N       732.00     0          0          0          0
FHC058001N       847.50     0          0          0          0
FHC057037N       839.40     0          0          0          0
FHC057016N       847.80     0          0          0          0
FHC057026N       802.20     0          0          0          0
FHC056078N       765.20     0          0          0          0
FHC118036N       843.20     0          0          0          0
FHC117053N       819.20     0          0          0          0
FHC079034N       792.00     0          0          0          0
FHC080036N       778.00     0          0          0          0
FHC113070N       761.50     0          0          0          0
FHC116001N       747.40     0          0          0          0
FHC116021N       728.00     0          0          0          0
FHC125002N       735.00     0          0          0          0
FHC130005N       710.30     0          0          0          0
FHC132039N       697.50     0          0          0          0
FHC132037N       699.00     0          0          0          0
FHC135003N       693.00     0          0          0          0
FHC139030N       673.40     0          0          0          0
FHC140028N       671.80     0          0          0          0
FHC143127N       659.40     0          0          0          0
FHC143129N       637.80     0          0          0          0
FHC144052N       650.60     0          0          0          0
FHC144107N       650.80     0          0          0          0
SOC123003N       653.60     0          0          0          0
FHC138013N       682.00     0          0          0          0
FHC137055N       672.40     0          0          0          0
FHC143100N       661.40     0          0          0          0
FHC144066N       653.80     0          0          0          0
FHC122012N       830.00     0          0          0          0
FHC124098N       802.60     0          0          0          0
FHC124029N       761.60     0          0          0          0
FHC124041N       749.90     0          0          0          0
FHC127003N       748.60     0          0          0          0
FHC128015N       726.50     0          0          0          0
FHC131019N       710.50     0          0          0          0
FHC132038N       702.00     0          0          0          0
FHC092030N       707.00     0          0          0          0
WBT120001N       952.72     0          0          0          0
WBT120005N       941.85     0          0          0          0
WBT122004N       926.98     0          0          0          0
WBT121005N       917.75     0          0          0          0
WBT124033N       897.20     0          0          0          0
WBT123021N       929.90     0          0          0          0
WBT124006N       881.62     0          0          0          0
WBT116016N       976.19     0          0          0          0
WBT125010N       949.99     0          0          0          0
WBT111001N       948.71     0          0          0          0
WBT129002N       921.86     0          0          0          0
WBT135027N       896.47     0          0          0          0
FHC013028N       865.50     0          0          0          0
FHC050020N       752.45     0          0          0          0
FHC050019N       752.45     0          0          0          0
FHC05007N        750.60     0          0          0          0

[CONDUITS]
;;Name           From             To               Length     Roughness  InOffset   OutOffset  InitFlow   MaxFlow
;;-------------- ---------------- ---------------- ---------- ---------- ---------- ---------- ---------- ----------
FHC002055C       FHC002055N       FHC003070N       2737.00    0.0130     846.64     842.89     0          0
FHC003070C       FHC003070N       FHC046007N       2444.00    0.0130     842.85     809.58     0          0
FHC046007C       FHC046007N       FHC047014N       4403.00    0.0130     800.12     774.77     0          0
FHC047014C       FHC047014N       FHC050CMCN       2323.50    0.0130     774.77     748.96     0          0
FHC050CMC1       FHC050CMCN       FHC05007N        289.00     0.0130     748.79     740.58     0          0
FHC051019C       FHC051019N       FHC052089N       3541.10    0.0130     724.19     696.55     0          0
FHC051005C       FHC051005N       FHC094046N       1922.50    0.0130     720.09     695.93     0          0
FHC094046C       FHC094046N       FHC095048N       1011.00    0.0130     695.93     687.75     0          0
FHC095048C       FHC095048N       FHC095038N       2370.50    0.0130     687.75     671.89     0          0
FHC095038C       FHC095038N       FHC098037N       1815.00    0.0130     670.96     666.83     0          0
FHC098037C       FHC098037N       FHC099049N       3565.00    0.0130     666.83     646.40     0          0
FHC099049C       FHC099049N       FHC142070N       843.00     0.0130     645.48     644.47     0          0
FHC142070C       FHC142070N       FHC142003N       2810.00    0.0130     644.47     641.05     0          0
FHC142003C       FHC142003N       FHC141049N       2522.50    0.0130     641.05     638.09     0          0
FHC141049C       FHC141049N       FHC144107N       2931.00    0.0130     638.09     634.51     0          0
WBT127002C       WBT127002N       FHC018069N       1046.55    0.0130     868.52     866.65     0          0
FHC018069C       FHC018069N       FHC018066N       686.80     0.0130     866.65     865.40     0          0
FHC024047C       FHC024047N       FHC018062N       2407.40    0.0130     897.76     883.60     0          0
FHC018062C       FHC018062N       FHC018066N       1380.80    0.0130     883.60     866.20     0          0
FHC018066C       FHC018066N       FHC017026N       2461.80    0.0130     865.40     861.45     0          0
FHC017026C       FHC017026N       FHC015062N       3089.20    0.0130     861.45     857.60     0          0
FHC015062C       FHC015062N       FHC034002N       3532.70    0.0130     857.60     852.09     0          0
FHC034002C       FHC034002N       FHC033063N       1745.10    0.0130     852.09     849.94     0          0
FHC029018C       FHC029018N       FHC033055N       3129.45    0.0130     860.29     852.98     0          0
FHC033055C       FHC033055N       FHC033063N       1400.50    0.0130     852.98     850.74     0          0
FHC033063C       FHC033063N       FHC033067N       667.70     0.0130     849.94     849.12     0          0
FHC033067C       FHC033067N       FHC033009N       2403.37    0.0130     849.12     846.23     0          0
FHC033009C       FHC033009N       FHC011034N       2886.00    0.0130     846.23     842.77     0          0
FHC017005C       FHC017005N       FHC014052N       2188.90    0.0130     906.87     868.28     0          0
FHC014052C       FHC014052N       FHC013020N       3936.40    0.0130     868.28     859.80     0          0
FHC013020C       FHC013020N       FHC013028N       1324.00    0.0130     859.80     856.23     0          0
FHC011016C       FHC011016N       FHC011034N       1827.00    0.0130     851.35     846.86     0          0
FHC011034C       FHC011034N       FHC012008N       2741.00    0.0130     842.17     840.43     0          0
FHC009070C       FHC009070N       FHC009020N       3314.60    0.0130     879.27     858.07     0          0
FHC009020C       FHC009020N       FHC012008N       2661.00    0.0130     858.07     841.63     0          0
FHC012008C       FHC012008N       FHC007040N       3588.00    0.0130     840.43     823.87     0          0
FHC007040C       FHC007040N       FHC008028N       966.00     0.0130     823.87     818.11     0          0
FHC008023C       FHC008023N       FHC008028N       1394.00    0.0130     842.50     819.24     0          0
FHC008028C       FHC008028N       FHC041001N       1648.00    0.0130     818.11     808.25     0          0
FHC041001C       FHC041001N       FHC046007N       865.00     0.0130     807.25     802.04     0          0
FHC055024C       FHC055024N       FHC056035N       2248.50    0.0130     751.02     723.88     0          0
FHC056035C       FHC056035N       FHC051005N       700.00     0.0130     722.73     720.49     0          0
FHC058001C       FHC058001N       FHC057037N       3242.60    0.0130     827.00     818.20     0          0
FHC057037C       FHC057037N       FHC057026N       3218.80    0.0130     818.10     792.42     0          0
FHC057016C       FHC057016N       FHC057026N       1896.40    0.0130     833.53     795.02     0          0
FHC057026C       FHC057026N       FHC056078N       3658.35    0.0130     792.31     757.18     0          0
FHC056078C       FHC056078N       FHC056035N       3060.20    0.0130     757.10     723.05     0          0
FHC118036C       FHC118036N       FHC117053N       4414.00    0.0130     830.29     800.04     0          0
FHC117053C       FHC117053N       FHC079034N       3379.00    0.0130     800.04     777.38     0          0
FHC079034C       FHC079034N       FHC113070N       2462.50    0.0130     777.38     747.44     0          0
FHC080036C       FHC080036N       FHC113070N       1033.50    0.0130     749.95     747.69     0          0
FHC113070C       FHC113070N       FHC116001N       2360.00    0.0130     747.44     731.74     0          0
FHC116001C       FHC116001N       FHC116021N       2318.00    0.0130     731.74     715.13     0          0
FHC116021C       FHC116021N       FHC125002N       1480.50    0.0130     714.88     710.31     0          0
FHC125002C       FHC125002N       FHC130005N       3994.00    0.0130     710.31     695.08     0          0
FHC130005C       FHC130005N       FHC132039N       3629.00    0.0130     694.83     683.80     0          0
FHC132039C       FHC132039N       FHC132037N       363.00     0.0130     683.80     682.68     0          0
FHC132037C       FHC132037N       FHC135003N       4612.50    0.0130     682.15     675.20     0          0
FHC135003C       FHC135003N       FHC139030N       2998.00    0.0130     675.10     658.10     0          0
FHC139030C       FHC139030N       FHC140028N       2643.50    0.0130     657.76     652.48     0          0
FHC140028C       FHC140028N       FHC143127N       4307.50    0.0130     652.48     643.86     0          0
FHC143127C       FHC143127N       FHC143129N       450.00     0.0130     643.32     623.40     0          0
FHC143129C       FHC143129N       FHC144052N       2177.01    0.0130     623.22     620.61     0          0
FHC144052C       FHC144052N       FHC144107N       711.50     0.0130     620.61     619.60     0          0
FHC144107C       FHC144107N       SOC123003N       761.00     0.0130     619.75     618.28     0          0
FHC138013C       FHC138013N       FHC137055N       2952.50    0.0130     670.57     656.80     0          0
FHC137055C       FHC137055N       FHC143100N       2601.50    0.0130     656.80     646.30     0          0
FHC143100C       FHC143100N       FHC144066N       3136.00    0.0130     645.95     630.59     0          0
FHC144066C       FHC144066N       FHC144052N       375.60     0.0130     630.59     621.75     0          0
FHC122012C       FHC122012N       FHC124098N       3363.00    0.0130     813.44     781.22     0          0
FHC124098C       FHC124098N       FHC124029N       2685.50    0.0130     781.22     748.84     0          0
FHC124029C       FHC124029N       FHC124041N       1305.50    0.0130     748.59     737.91     0          0
FHC124041C       FHC124041N       FHC127003N       2664.50    0.0130     737.66     733.69     0          0
FHC127003C       FHC127003N       FHC128015N       2099.00    0.0130     733.69     706.89     0          0
FHC128015C       FHC128015N       FHC131019N       3149.50    0.0130     706.89     694.92     0          0
FHC131019C       FHC131019N       FHC132038N       681.00     0.0130     694.92     684.04     0          0
FHC132038C       FHC132038N       FHC132037N       365.50     0.0130     682.69     682.15     0          0
FHC092030C       FHC092030N       FHC095038N       1382.00    0.0130     684.56     675.62     0          0
WBT120001C       WBT120001N       WBT120005N       1089.10    0.0130     942.69     932.04     0          0
WBT120005C       WBT120005N       WBT122004N       2987.85    0.0130     931.91     916.68     0          0
WBT122004C       WBT122004N       WBT121005N       2200.25    0.0130     916.48     910.06     0          0
WBT121005C       WBT121005N       WBT124033N       1146.30    0.0130     910.06     889.33     0          0
WBT124033C       WBT124033N       WBT124006N       2359.13    0.0130     889.13     872.21     0          0
WBT123021C       WBT123021N       WBT124006N       2171.80    0.0130     920.06     872.51     0          0
WBT124006C       WBT124006N       WBT127002N       1006.50    0.0130     871.97     868.52     0          0
WBT116016C       WBT116016N       WBT125010N       3194.30    0.0130     960.62     935.02     0          0
WBT125010C       WBT125010N       FHC017005N       3407.34    0.0130     935.02     906.87     0          0
WBT111001C       WBT111001N       WBT129002N       4495.15    0.0130     932.33     909.06     0          0
WBT129002C       WBT129002N       WBT135027N       4593.35    0.0130     908.86     883.70     0          0
WBT135027C       WBT135027N       FHC009070N       1542.77    0.0130     883.53     879.27     0          0
FHC013028C       FHC013028N       FHC011016N       2271.00    0.0130     856.23     851.35     0          0
FHC050020C       FHC050020N       FHC050019N       497.90     0.0130     743.96     739.85     0          0
FHC050019C       FHC050019N       FHC051019N       1986.80    0.0130     739.43     724.19     0          0
FHC05007C        Node_5007        Node_1003762     3014.00    0.0120     740.58     720.09     0          0

[XSECTIONS]
;;Link           Shape        Geom1      Geom2      Geom3      Geom4      Barrels
;;-------------- ------------ ---------- ---------- ---------- ---------- ----------
FHC002055C       CIRCULAR     3.00       0          0          0          1
FHC003070C       CIRCULAR     2.50       0          0          0          1
FHC046007C       CIRCULAR     2.50       0          0          0          1
FHC047014C       CIRCULAR     2.50       0          0          0          1
FHC050CMC1       CIRCULAR     2.00       0          0          0          1
FHC051019C       CIRCULAR     2.00       0          0          0          1
FHC051005C       CIRCULAR     2.50       0          0          0          1
FHC094046C       CIRCULAR     3.00       0          0          0          1
FHC095048C       CIRCULAR     3.00       0          0          0          1
FHC095038C       CIRCULAR     3.50       0          0          0          1
FHC098037C       CIRCULAR     3.00       0          0          0          1
FHC099049C       CIRCULAR     4.00       0          0          0          1
FHC142070C       CIRCULAR     4.00       0          0          0          1
FHC142003C       CIRCULAR     4.00       0          0          0          1
FHC141049C       CIRCULAR     4.00       0          0          0          1
WBT127002C       CIRCULAR     1.75       0          0          0          1
FHC018069C       CIRCULAR     2.00       0          0          0          1
FHC024047C       CIRCULAR     1.00       0          0          0          1
FHC018062C       CIRCULAR     1.00       0          0          0          1
FHC018066C       CIRCULAR     2.00       0          0          0          1
FHC017026C       CIRCULAR     2.25       0          0          0          1
FHC015062C       CIRCULAR     2.25       0          0          0          1
FHC034002C       CIRCULAR     2.25       0          0          0          1
FHC029018C       CIRCULAR     1.25       0          0          0          1
FHC033055C       CIRCULAR     1.25       0          0          0          1
FHC033063C       CIRCULAR     2.25       0          0          0          1
FHC033067C       CIRCULAR     2.25       0          0          0          1
FHC033009C       CIRCULAR     2.25       0          0          0          1
FHC017005C       CIRCULAR     1.25       0          0          0          1
FHC014052C       CIRCULAR     1.50       0          0          0          1
FHC013020C       CIRCULAR     1.50       0          0          0          1
FHC011016C       CIRCULAR     1.50       0          0          0          1
FHC011034C       CIRCULAR     3.00       0          0          0          1
FHC009070C       CIRCULAR     1.25       0          0          0          1
FHC009020C       CIRCULAR     1.50       0          0          0          1
FHC012008C       CIRCULAR     3.00       0          0          0          1
FHC007040C       CIRCULAR     2.25       0          0          0          1
FHC008023C       CIRCULAR     0.83       0          0          0          1
FHC008028C       CIRCULAR     2.25       0          0          0          1
FHC041001C       CIRCULAR     2.25       0          0          0          1
FHC055024C       CIRCULAR     0.83       0          0          0          1
FHC056035C       CIRCULAR     1.75       0          0          0          1
FHC058001C       CIRCULAR     1.75       0          0          0          1
FHC057037C       CIRCULAR     1.50       0          0          0          1
FHC057016C       CIRCULAR     1.00       0          0          0          1
FHC057026C       CIRCULAR     1.50       0          0          0          1
FHC056078C       CIRCULAR     1.50       0          0          0          1
FHC118036C       CIRCULAR     1.00       0          0          0          1
FHC117053C       CIRCULAR     1.25       0          0          0          1
FHC079034C       CIRCULAR     1.25       0          0          0          1
FHC080036C       CIRCULAR     1.25       0          0          0          1
FHC113070C       CIRCULAR     1.50       0          0          0          1
FHC116001C       CIRCULAR     1.50       0          0          0          1
FHC116021C       CIRCULAR     1.75       0          0          0          1
FHC125002C       CIRCULAR     1.75       0          0          0          1
FHC130005C       CIRCULAR     2.00       0          0          0          1
FHC132039C       CIRCULAR     2.00       0          0          0          1
FHC132037C       CIRCULAR     2.50       0          0          0          1
FHC135003C       CIRCULAR     2.00       0          0          0          1
FHC139030C       CIRCULAR     2.50       0          0          0          1
FHC140028C       CIRCULAR     2.50       0          0          0          1
FHC143127C       CIRCULAR     2.00       0          0          0          1
FHC143129C       CIRCULAR     4.00       0          0          0          1
FHC144052C       CIRCULAR     4.00       0          0          0          1
FHC144107C       CIRCULAR     4.00       0          0          0          1
FHC138013C       CIRCULAR     0.83       0          0          0          1
FHC137055C       CIRCULAR     0.83       0          0          0          1
FHC143100C       CIRCULAR     1.00       0          0          0          1
FHC144066C       CIRCULAR     3.00       0          0          0          1
FHC122012C       CIRCULAR     1.00       0          0          0          1
FHC124098C       CIRCULAR     1.00       0          0          0          1
FHC124029C       CIRCULAR     1.25       0          0          0          1
FHC124041C       CIRCULAR     1.50       0          0          0          1
FHC127003C       CIRCULAR     1.25       0          0          0          1
FHC128015C       CIRCULAR     1.50       0          0          0          1
FHC131019C       CIRCULAR     1.25       0          0          0          1
FHC132038C       CIRCULAR     2.50       0          0          0          1
FHC092030C       CIRCULAR     2.50       0          0          0          1
WBT120001C       CIRCULAR     0.83       0          0          0          1
WBT120005C       CIRCULAR     1.00       0          0          0          1
WBT122004C       CIRCULAR     1.25       0          0          0          1
WBT121005C       CIRCULAR     1.00       0          0          0          1
WBT124033C       CIRCULAR     1.25       0          0          0          1
WBT123021C       CIRCULAR     0.83       0          0          0          1
WBT124006C       CIRCULAR     1.50       0          0          0          1
WBT116016C       CIRCULAR     0.83       0          0          0          1
WBT125010C       CIRCULAR     1.00       0          0          0          1
WBT111001C       CIRCULAR     1.00       0          0          0          1
WBT129002C       CIRCULAR     1.25       0          0          0          1
WBT135027C       CIRCULAR     1.50       0          0          0          1
FHC013028C       CIRCULAR     1.50       0          0          0          1
FHC050020C       CIRCULAR     1.50       0          0          0          1
FHC050019C       CIRCULAR     1.75       0          0          0          1
FHC05007C        CIRCULAR     3.00       0          0          0          1

[LOSSES]
;;Link           Inlet      Outlet     Average    Flap Gate
;;-------------- ---------- ---------- ---------- ----------
FHC002055C       0          0          0          NO
FHC003070C       0          0          0          NO
FHC046007C       0          0          0          NO
FHC047014C       0          0          0          NO
FHC050CMC1       0          0          0          NO
FHC051019C       0          0          0          NO
FHC051005C       0          0          0          NO
FHC094046C       0          0          0          NO
FHC095048C       0          0          0          NO
FHC095038C       0          0          0          NO
FHC098037C       0          0          0          NO
FHC099049C       0          0          0          NO
FHC142070C       0          0          0          NO
FHC142003C       0          0          0          NO
FHC141049C       0          0          0          NO
WBT127002C       0          0          0          NO
FHC018069C       0          0          0          NO
FHC024047C       0          0          0          NO
FHC018062C       0          0          0          NO
FHC018066C       0          0          0          NO
FHC017026C       0          0          0          NO
FHC015062C       0          0          0          NO
FHC034002C       0          0          0          NO
FHC029018C       0          0          0          NO
FHC033055C       0          0          0          NO
FHC033063C       0          0          0          NO
FHC033067C       0          0          0          NO
FHC033009C       0          0          0          NO
FHC017005C       0          0          0          NO
FHC014052C       0          0          0          NO
FHC013020C       0          0          0          NO
FHC011016C       0          0          0          NO
FHC011034C       0          0          0          NO
FHC009070C       0          0          0          NO
FHC009020C       0          0          0          NO
FHC012008C       0          0          0          NO
FHC007040C       0          0          0          NO
FHC008023C       0          0          0          NO
FHC008028C       0          0          0          NO
FHC041001C       0          0          0          NO
FHC055024C       0          0          0          NO
FHC056035C       0          0          0          NO
FHC058001C       0          0          0          NO
FHC057037C       0          0          0          NO
FHC057016C       0          0          0          NO
FHC057026C       0          0          0          NO
FHC056078C       0          0          0          NO
FHC118036C       0          0          0          NO
FHC117053C       0          0          0          NO
FHC079034C       0          0          0          NO
FHC080036C       0          0          0          NO
FHC113070C       0          0          0          NO
FHC116001C       0          0          0          NO
FHC116021C       0          0          0          NO
FHC125002C       0          0          0          NO
FHC130005C       0          0          0          NO
FHC132039C       0          0          0          NO
FHC132037C       0          0          0          NO
FHC135003C       0          0          0          NO
FHC139030C       0          0          0          NO
FHC140028C       0          0          0          NO
FHC143127C       0          0          0          NO
FHC143129C       0          0          0          NO
FHC144052C       0          0          0          NO
FHC144107C       0          0          0          NO
FHC138013C       0          0          0          NO
FHC137055C       0          0          0          NO
FHC143100C       0          0          0          NO
FHC144066C       0          0          0          NO
FHC122012C       0          0          0          NO
FHC124098C       0          0          0          NO
FHC124029C       0          0          0          NO
FHC124041C       0          0          0          NO
FHC127003C       0          0          0          NO
FHC128015C       0          0          0          NO
FHC131019C       0          0          0          NO
FHC132038C       0          0          0          NO
FHC092030C       0          0          0          NO
WBT120001C       0          0          0          NO
WBT120005C       0          0          0          NO
WBT122004C       0          0          0          NO
WBT121005C       0          0          0          NO
WBT124033C       0          0          0          NO
WBT123021C       0          0          0          NO
WBT124006C       0          0          0          NO
WBT116016C       0          0          0          NO
WBT125010C       0          0          0          NO
WBT111001C       0          0          0          NO
WBT129002C       0          0          0          NO
WBT135027C       0          0          0          NO
FHC013028C       0          0          0          NO
FHC050020C       0          0          0          NO
FHC050019C       0          0          0          NO
FHC05007C        0          0          0          NO

[COORDINATES]
;;Node           X-Coord            Y-Coord
;;-------------- ------------------ ------------------
FHC002055N       -6500.60           -0.60             
FHC003070N       -6000.60           -0.60             
FHC046007N       -5500.60           -0.60             
FHC047014N       -4700.60           -0.60             
FHC050CMCN       -4000.60           -0.60             