;; SWMM5 .inp converted from XPSWMM .xp file
;; Generated by XPSWMM Card Reader
;; Source format: XP_CARD | Original title: Tyler Creek

[TITLE]
;;Project Title/Notes
Tyler Creek

[OPTIONS]
FLOW_UNITS           CFS
INFILTRATION         HORTON
FLOW_ROUTING         DYNWAVE
LINK_OFFSETS         DEPTH
MIN_SLOPE            0.0
ALLOW_PONDING        NO
SKIP_STEADY_STATE    NO
INERTIAL_DAMPING     PARTIAL
NORMAL_FLOW_LIMITED  BOTH

[JUNCTIONS]
;;Name           Elev       MaxDepth   InitDepth  SurDepth   Aponded
;;-------------- ---------- ---------- ---------- ---------- ----------
0                0          0          0          0          0
0                0          0          0          0          0
0                0          0          0          0          0
0                0          0          0          0          0
0                0          0          0          0          0
0                0          0          0          0          0
0                0          0          0          0          0
0                0          0          0          0          0
0                0          0          0          0          0
0                0          0          0          0          0
0                0          0          0          0          0
0                0          0          0          0          0
0                0          0          0          0          0
0                0          0          0          0          0
0                0          0          0          0          0
0                0          0          0          0          0
0                0          0          0          0          0
0                0          0          0          0          0
0                0          0          0          0          0
0                0          0          0          0          0
0                0          0          0          0          0
0                0          0          0          0          0
0                0          0          0          0          0
0                0          0          0          0          0
0                0          0          0          0          0
0                0          0          0          0          0
0                0          0          0          0          0
0                0          0          0          0          0
0                0          0          0          0          0
0                0          0          0          0          0
0                0          0          0          0          0
0                0          0          0          0          0
0                0          0          0          0          0

[CONDUITS]
;;Name           From             To               Length     Roughness  InOffset   OutOffset  InitFlow   MaxFlow
;;-------------- ---------------- ---------------- ---------- ---------- ---------- ---------- ---------- ----------
201              0                0                3800.00    0.0140     149.40     100.00     0          0
205              0                0                6700.00    0.0140     126.80     100.00     0          0
207              0                0                33.00      0.0140     0          0          0          0
211              0                0                33.00      0.0140     0          0          0          0
214              0                0                2600.00    0          102.60     100.00     0          0
222              0                0                6100.00    0          130.50     100.00     0          0
223              0                0                5000.00    0          135.00     100.00     0          0
224              0                0                5550.00    0          1665.00    100.00     0          0
225              0                0                33.00      0.0140     0          0          0          0
230              0                0                1600.00    0          101.60     100.00     0          0
218              0                0                33.00      0.0140     0          0          0          0
233              0                0                1400.00    0          101.40     100.00     0          0
235              0                0                4400.00    0          104.40     100.00     0          0
237              0                0                900.00     0.0140     100.90     100.00     0          0
239              0                0                4000.00    0          104.00     100.00     0          0
243              0                0                4000.00    0          132.00     100.00     0          0
244              0                0                3200.00    0          128.80     100.00     0          0
246              0                0                33.00      0.0140     0          0          0          0
248              0                0                3900.00    0          107.80     100.00     0          0
250              0                0                33.00      0.0140     0          0          0          0
252              0                0                33.00      0.0140     0          0          0          0
254              0                0                2400.00    0          102.40     100.00     0          0
256              0                0                4200.00    0          104.20     100.00     0          0
262              0                0                6000.00    0          142.00     100.00     0          0
263              0                0                3200.00    0          103.20     100.00     0          0
265              0                0                33.00      0.0140     0          0          0          0
267              0                0                33.00      0.0140     0          0          0          0
268              0                0                33.00      0.0140     0          0          0          0
274              0                0                33.00      0.0140     0          0          0          0
276              0                0                3500.00    0          103.50     100.00     0          0
278              0                0                33.00      0.0140     0          0          0          0
260              0                0                3300.00    0          103.30     100.00     0          0

[XSECTIONS]
;;Link           Shape        Geom1      Geom2      Geom3      Geom4      Barrels
;;-------------- ------------ ---------- ---------- ---------- ---------- ----------
201              IRREGULAR    0          0          0          0          1
205              IRREGULAR    0          0          0          0          1
207              CIRCULAR     1.00       0          0          0          1
211              CIRCULAR     1.00       0          0          0          1
214              IRREGULAR    0          0          0          0          1
222              IRREGULAR    0          0          0          0          1
223              IRREGULAR    0          0          0          0          1
224              IRREGULAR    0          0          0          0          1
225              CIRCULAR     1.00       0          0          0          1
230              IRREGULAR    0          0          0          0          1
218              CIRCULAR     1.00       0          0          0          1
233              IRREGULAR    0          0          0          0          1
235              IRREGULAR    0          0          0          0          1
237              IRREGULAR    0          0          0          0          1
239              IRREGULAR    0          0          0          0          1
243              IRREGULAR    0          0          0          0          1
244              IRREGULAR    0          0          0          0          1
246              CIRCULAR     1.00       0          0          0          1
248              IRREGULAR    0          0          0          0          1
250              CIRCULAR     1.00       0          0          0          1
252              CIRCULAR     1.00       0          0          0          1
254              IRREGULAR    0          0          0          0          1
256              IRREGULAR    0          0          0          0          1
262              IRREGULAR    0          0          0          0          1
263              IRREGULAR    0          0          0          0          1
265              CIRCULAR     1.00       0          0          0          1
267              CIRCULAR     1.00       0          0          0          1
268              CIRCULAR     1.00       0          0          0          1
274              CIRCULAR     1.00       0          0          0          1
276              IRREGULAR    0          0          0          0          1
278              CIRCULAR     1.00       0          0          0          1
260              IRREGULAR    0          0          0          0          1

[LOSSES]
;;Link           Inlet      Outlet     Average    Flap Gate
;;-------------- ---------- ---------- ---------- ----------
201              0          0          0          NO
205              0          0          0          NO
207              0          0          0          NO
211              0          0          0          NO
214              0          0          0          NO
222              0          0          0          NO
223              0          0          0          NO
224              0          0          0          NO
225              0          0          0          NO
230              0          0          0          NO
218              0          0          0          NO
233              0          0          0          NO
235              0          0          0          NO
237              0          0          0          NO
239              0          0          0          NO
243              0          0          0          NO
244              0          0          0          NO
246              0          0          0          NO
248              0          0          0          NO
250              0          0          0          NO
252              0          0          0          NO
254              0          0          0          NO
256              0          0          0          NO
262              0          0          0          NO
263              0          0          0          NO
265              0          0          0          NO
267              0          0          0          NO
268              0          0          0          NO
274              0          0          0          NO
276              0          0          0          NO
278              0          0          0          NO
260              0          0          0          NO

[COORDINATES]
;;Node           X-Coord            Y-Coord
;;-------------- ------------------ ------------------
0                16.62              16.18             
0                40.01              16.66             
0                57.41              17.70             
0                75.91              17.70             
0                93.47              17.70             
0                114.34             18.09             
0                12.35              65.29             
0                37.01              64.90             
0                59.78              65.68             
0                113.86             65.68             
0                86.82              66.08             
0                138.53             17.70             
0                157.98             17.31             
0                181.70             17.31             
0                204.00             18.09             
0                224.87             18.09             
0                19.01              111.38            
0                47.95              110.99            
0                71.32              109.85            
0                94.44              109.81            
0                116.73             110.99            
0                140.93             110.20            
0                172.71             110.20            
0                198.80             110.59            
0                223.47             111.77            
0                126.22             153.46            
0                149.46             154.25            
0                123.37             190.83            
0                153.26             189.65            
0                180.77             189.25            
0                181.25             153.86            
0                202.60             153.86            
0                223.47             153.86            

[MAP]
DIMENSIONS 12.35 16.18 224.87 190.83
Units      None

[REPORT]
INPUT            YES
SUBCATCHMENTS    ALL
NODES            ALL
LINKS            ALL



