;; SWMM5 .inp converted from XPSWMM .xp file
;; Generated by XPSWMM Card Reader
;; Source format: XP_CARD | Original title: CSO-015

[TITLE]
;;Project Title/Notes
CSO-015

[OPTIONS]
FLOW_UNITS           CFS
INFILTRATION         HORTON
FLOW_ROUTING         DYNWAVE
LINK_OFFSETS         DEPTH
MIN_SLOPE            0.0
ALLOW_PONDING        NO
SKIP_STEADY_STATE    NO
ROUTING_STEP         00:00:15
VARIABLE_STEP        0.75
INERTIAL_DAMPING     PARTIAL
NORMAL_FLOW_LIMITED  BOTH
MAX_TRIALS           50
HEAD_TOLERANCE       0.0033

[JUNCTIONS]
;;Name           Elev       MaxDepth   InitDepth  SurDepth   Aponded
;;-------------- ---------- ---------- ---------- ---------- ----------
500              589.50     0          0          0          0
501              592.00     0          0          0          0
502              592.00     0          0          0          0
503              593.00     0          0          0          0
595              593.50     0          0          0          0
504              594.50     0          0          0          0
505              596.00     0          0          0          0
506              598.00     0          0          0          0
507              593.00     0          0          0          0
513              593.50     0          0          0          0
509              594.00     0          0          0          0
518              593.00     0          0          0          0
514              593.00     0          0          0          0
515              595.00     0          0          0          0
517              595.00     0          0          0          0
510              594.00     0          0          0          0
530              591.00     0          0          0          0
531              592.50     0          0          0          0
532              597.00     0          0          0          0
533              596.00     0          0          0          0
534              596.00     0          0          0          0
535              590.50     0          0          0          0
536              592.00     0          0          0          0
537              593.00     0          0          0          0
538              593.00     0          0          0          0
519              589.00     0          0          0          0
520              590.00     0          0          0          0
521              591.00     0          0          0          0
522              590.50     0          0          0          0
523              593.50     0          0          0          0
524              593.00     0          0          0          0
525              593.00     0          0          0          0
526              593.00     0          0          0          0
527              592.50     0          0          0          0
528              591.00     0          0          0          0
529              594.50     0          0          0          0
511              593.00     0          0          0          0
512              595.50     0          0          0          0
285              589.00     0          0          0          0
287              589.00     0          0          0          0

[CONDUITS]
;;Name           From             To               Length     Roughness  InOffset   OutOffset  InitFlow   MaxFlow
;;-------------- ---------------- ---------------- ---------- ---------- ---------- ---------- ---------- ----------
1501             502              501              200.00     0.0130     572.70     572.55     0          0
1502             503              502              350.00     0.0130     573.00     572.70     0          0
1503             595              503              90.00      0.0130     573.10     573.00     0          0
1595             504              595              177.00     0.0130     573.30     573.10     0          0
1504             505              504              278.00     0.0130     573.70     573.30     0          0
1505             506              505              295.00     0.0130     574.56     574.20     0          0
1506             507              506              487.00     0.0130     575.05     574.56     0          0
1599             513              507              385.00     0.0130     577.04     576.50     0          0
1508             509              507              185.00     0.0130     576.65     576.50     0          0
1598             518              513              340.00     0.0130     577.37     577.04     0          0
1513             514              513              145.00     0.0130     581.90     579.00     0          0
1514             515              514              155.00     0.0130     583.14     581.90     0          0
1515             517              515              175.00     0.0130     584.54     583.14     0          0
1509             510              509              370.00     0.0130     577.02     576.65     0          0
1596             530              501              430.00     0.0130     573.60     571.45     0          0
1530             531              530              235.00     0.0130     574.38     574.00     0          0
1531             532              531              260.00     0.0130     574.80     574.38     0          0
1532             533              532              400.00     0.0130     575.36     574.80     0          0
1533             534              533              325.00     0.0130     575.72     575.36     0          0
1534             535              534              220.00     0.0130     575.94     575.72     0          0
1535             536              535              270.00     0.0130     576.22     575.94     0          0
1536             537              536              250.00     0.0130     577.92     577.63     0          0
1537             538              537              450.00     0.0130     578.60     577.92     0          0
1518             519              518              300.00     0.0130     577.67     577.37     0          0
1519             520              519              315.00     0.0130     578.00     577.67     0          0
1520             521              520              300.00     0.0130     579.61     579.20     0          0
1521             522              521              290.00     0.0130     580.42     580.01     0          0
1597             523              520              350.00     0.0130     579.24     578.80     0          0
1523             524              523              110.00     0.0130     579.38     579.24     0          0
1524             525              524              26.00      0.0130     579.41     579.38     0          0
1525             526              525              251.00     0.0130     580.36     579.41     0          0
1526             527              526              220.00     0.0130     581.42     580.76     0          0
1527             528              527              340.00     0.0130     583.72     581.82     0          0
1528             529              528              24.00      0.0130     583.83     583.72     0          0
1510             511              510              90.00      0.0130     577.11     577.02     0          0
1511             512              511              319.00     0.0130     578.43     577.98     0          0
1500             501              500              328.00     0.0130     571.05     570.70     0          0

[ORIFICES]
;;Name           From             To               Type       Offset     Qcoeff     Gated    CloseTime
;;-------------- ---------------- ---------------- ---------- ---------- ---------- -------- ----------
288              ?                ?                SIDE       0          0.650      NO       0

[WEIRS]
;;Name           From             To               Type       CrestHt    Qcoeff     Gated    EndCon   EndCoeff   Surcharge
;;-------------- ---------------- ---------------- ---------- ---------- ---------- -------- -------- ---------- ----------
wier             ?                ?                TRANSVERSE 575.63     1.840      NO       0        0          YES

[XSECTIONS]
;;Link           Shape        Geom1      Geom2      Geom3      Geom4      Barrels
;;-------------- ------------ ---------- ---------- ---------- ---------- ----------
1501             CIRCULAR     6.50       6.50       0          0          1
1502             CIRCULAR     6.50       0          0          0          1
1503             CIRCULAR     6.50       0          0          0          1
1595             CIRCULAR     6.50       0          0          0          1
1504             CIRCULAR     6.50       0          0          0          1
1505             CIRCULAR     6.00       0          0          0          1
1506             CIRCULAR     6.00       0          0          0          1
1599             CIRCULAR     4.50       0          0          0          1
1508             CIRCULAR     4.50       0          0          0          1
1598             CIRCULAR     4.50       0          0          0          1
1513             CIRCULAR     1.50       0          0          0          1
1514             CIRCULAR     1.50       0          0          0          1
1515             CIRCULAR     1.50       0          0          0          1
1509             CIRCULAR     4.50       0          0          0          1
1596             CIRCULAR     5.00       0          0          0          1
1530             CIRCULAR     4.50       0          0          0          1
1531             CIRCULAR     4.50       0          0          0          1
1532             CIRCULAR     4.50       0          0          0          1
1533             CIRCULAR     4.50       0          0          0          1
1534             CIRCULAR     4.50       0          0          0          1
1535             CIRCULAR     4.50       0          0          0          1
1536             CIRCULAR     2.75       0          0          0          1
1537             CIRCULAR     2.73       0          0          0          1
1518             CIRCULAR     4.50       0          0          0          1
1519             CIRCULAR     4.50       0          0          0          1
1520             CIRCULAR     3.00       0          0          0          1
1521             CIRCULAR     2.50       0          0          0          1
1597             CIRCULAR     4.00       0          0          0          1
1523             CIRCULAR     4.00       0          0          0          1
1524             CIRCULAR     4.00       0          0          0          1
1525             CIRCULAR     3.00       0          0          0          1
1526             CIRCULAR     2.50       0          0          0          1
1527             CIRCULAR     2.00       0          0          0          1
1528             CIRCULAR     2.00       0          0          0          1
1510             CIRCULAR     4.50       0          0          0          1
1511             CIRCULAR     3.50       0          0          0          1
1500             CIRCULAR     8.00       0          0          0          1
288              RECT_CLOSED  0.50       0          0          0          
wier             RECT_OPEN    0          25.00      0          0          

[LOSSES]
;;Link           Inlet      Outlet     Average    Flap Gate
;;-------------- ---------- ---------- ---------- ----------
1501             0          0          0          NO
1502             0          0          0          NO
1503             0          0          0          NO
1595             0          0          0          NO
1504             0          0          0          NO
1505             0          0          0          NO
1506             0          0          0          NO
1599             0          0          0          NO
1508             0          0          0          NO
1598             0          0          0          NO
1513             0          0          0          NO
1514             0          0          0          NO
1515             0          0          0          NO
1509             0          0          0          NO
1596             0          0          0          NO
1530             0          0          0          NO
1531             0          0          0          NO
1532             0          0          0          NO
1533             0          0          0          NO
1534             0          0          0          NO
1535             0          0          0          NO
1536             0          0          0          NO
1537             0          0          0          NO
1518             0          0          0          NO
1519             0          0          0          NO
1520             0          0          0          NO
1521             0          0          0          NO
1597             0          0          0          NO
1523             0          0          0          NO
1524             0          0          0          NO
1525             0          0          0          NO
1526             0          0          0          NO
1527             0          0          0          NO
1528             0          0          0          NO
1510             0          0          0          NO
1511             0          0          0          NO
1500             0          0          0          NO

[COORDINATES]
;;Node           X-Coord            Y-Coord
;;-------------- ------------------ ------------------
500              497.64             -10.36            
501              502.64             311.64            
502              502.64             517.64            
503              497.64             871.64            
595              497.64             1045.64           
504              497.64             1222.64           
505              497.64             1500.64           
506              191.64             1500.64           
507              -141.36            1844.64           
513              -413.36            1572.64           
509              -10.36             1971.64           
518              -653.36            1812.64           
514              -516.36            1469.64           
515              -570.36            1335.64           
517              -570.36            1160.64           
510              -10.36             2341.64           
530              67.64              311.64            
531              -167.36            311.64            
532              -417.36            262.64            
533              -617.36            205.64            
534              -922.36            115.64            
535              -1142.36           97.64             
536              -1412.36           87.64             
537              -1472.36           327.64            
538              -1417.36           774.64            
519              -865.36            2024.64           
520              -1180.36           2024.64           
521              -1180.36           1724.64           
522              -1255.36           1443.64           
523              -1180.36           2374.64           
524              -1189.36           2548.64           
525              -1191.36           2718.64           
526              -1431.36           2718.64           
527              -1651.36           2718.64           
528              -1991.36           2718.64           
529              -2069.36           2546.64           
511              -10.36             2427.64           
512              -10.36             2746.64           
285              545.64             -499.36           
287              -94.36             -415.36           

[MAP]
DIMENSIONS -2069.36 -499.36 545.64 2746.64
Units      None

[REPORT]
INPUT            YES
SUBCATCHMENTS    ALL
NODES            ALL
LINKS            ALL



