;; SWMM5 .inp converted from XPSWMM .xp file
;; Generated by XPSWMM Card Reader
;; Source format: XP_CARD | Original title: C7-CONTINUO.XP CONTINUOS SIMULATION 1991

[TITLE]
;;Project Title/Notes
C7-CONTINUO.XP CONTINUOS SIMULATION 1991

[OPTIONS]
FLOW_UNITS           CFS
INFILTRATION         HORTON
FLOW_ROUTING         DYNWAVE
LINK_OFFSETS         DEPTH
MIN_SLOPE            0.0
ALLOW_PONDING        NO
SKIP_STEADY_STATE    NO
ROUTING_STEP         00:00:120
VARIABLE_STEP        0.75
INERTIAL_DAMPING     PARTIAL
NORMAL_FLOW_LIMITED  BOTH
MAX_TRIALS           50
HEAD_TOLERANCE       0.0033

[JUNCTIONS]
;;Name           Elev       MaxDepth   InitDepth  SurDepth   Aponded
;;-------------- ---------- ---------- ---------- ---------- ----------
U-16NW           10.00      0          6.00       0          0
U-16SE           10.00      0          11.40      0          0
U-17W            20.00      0          5.28       0          0
U-17E            10.00      0          12.10      0          0
U-18W            10.00      0          12.10      0          0
U-18E            10.00      0          13.10      0          0
U-20N            10.00      0          11.40      0          0
U-19N            10.00      0          13.10      0          0
U-21E            10.00      0          9.90       0          0
U-19S            10.00      0          14.60      0          0
U-62W            16.50      0          10.60      0          0
U-62E            17.00      0          13.60      0          0
U-22W            10.00      0          9.90       0          0
U-22E            10.00      0          9.10       0          0
U-23W            10.00      0          9.10       0          0
U-23E            10.00      0          7.10       0          0
U-24W            10.00      0          7.10       0          0
U-24E            10.00      0          5.60       0          0
U-25W            10.00      0          5.60       0          0
U-25E            10.00      0          8.50       0          0
U26-W            10.00      0          8.50       0          0
U-26E            10.00      0          7.40       0          0
U-27W            10.00      0          7.40       0          0
U-27E            10.00      0          10.60      0          0
U-28W            10.00      0          10.60      0          0
U-28E            10.00      0          10.60      0          0
U-29W            10.00      0          10.60      0          0
U-29E            10.00      0          9.10       0          0
C7-102N          10.00      0          12.60      0          0
C7-103N          10.00      0          10.50      0          0
U-30W            10.00      0          9.10       0          0
U-42S            10.00      0          9.80       0          0
U-33N            10.00      0          5.30       0          0
U-33S            10.00      0          8.40       0          0
U-34N            10.00      0          8.40       0          0
U-34S            10.00      0          8.10       0          0
U-35N            10.00      0          8.10       0          0
U-35S            10.00      0          8.10       0          0
U-36N            10.00      0          8.10       0          0
U-36S            10.00      0          9.20       0          0
U-37N            10.00      0          9.20       0          0
U-37S            11.00      0          10.10      0          0
U-38N            10.00      0          10.10      0          0
U-38S            10.00      0          8.90       0          0
U-39N            10.10      0          8.90       0          0
U-39S            10.10      0          10.10      0          0
U-40N            10.00      0          10.10      0          0
U-40S            10.00      0          7.10       0          0
U-41N            10.00      0          7.10       0          0
U-41S            10.00      0          7.10       0          0
U-42N            10.00      0          7.10       0          0
U-43N            10.00      0          9.80       0          0
U-43S            10.00      0          10.80      0          0
U-44N            10.00      0          10.80      0          0
U-44S            10.00      0          9.90       0          0
U-45N            10.00      0          9.90       0          0
U-45S            10.00      0          10.10      0          0
U-46N            10.00      0          10.10      0          0
U-47N            10.00      0          9.00       0          0
U-47S            10.00      0          7.60       0          0
U-49N            10.00      0          7.60       0          0
U-49S            10.00      0          10.40      0          0
U-50N            10.00      0          10.40      0          0
U-50S            10.00      0          8.30       0          0
U-51N            10.00      0          8.30       0          0
U-51S            10.00      0          8.80       0          0
U-52N            10.00      0          8.80       0          0
U-52S            10.00      0          3.60       0          0
U-48W            10.00      0          13.80      0          0
U-31E            10.00      0          13.80      0          0
U-31W            10.00      0          15.90      0          0
C7-104N          10.00      0          12.40      0          0
C7-105N          10.00      0          12.40      0          0
C7-106N          10.00      0          11.40      0          0
C7-107N          10.00      0          11.10      0          0
C7-108N          10.00      0          11.60      0          0
127ST-1N         10.00      0          7.80       0          0
U-53W            10.00      0          7.80       0          0
U-53E            10.00      0          17.30      0          0
U-54W            10.00      0          17.30      0          0
U-54E            10.00      0          6.90       0          0
U-55W            10.00      0          6.90       0          0
U-55E            10.00      0          5.30       0          0
127ST-5N         10.00      0          6.20       0          0
C7-110N          10.00      0          15.20      0          0
C7-111N          10.00      0          11.00      0          0
C7-112N          10.00      0          13.20      0          0
C7-113N          10.00      0          14.20      0          0
C7-114N          10.00      0          14.20      0          0
CPP-N-1          0          0          0          0          0
CC7-N-1          0          0          0          0          0
CGTY-N-1         0          0          0          0          0
CGTY-N-3         0          0          0          0          0
CGTY-N-4         0          0          0          0          0
C98ST-1          0          0          0          0          0
CGTY-N-2         0          0          0          0          0
CC7-N-2          0          0          0          0          0
CC7-N-4          0          0          0          0          0
CC7-N-5          0          0          0          0          0
CC7-N-6          0          0          0          0          0
CC7-N-7          0          0          0          0          0
CC7-N-8          0          0          0          0          0
CC7-S-1          0          0          0          0          0
CC7-S-2          0          0          0          0          0
CC7-S-6          0          0          0          0          0
CC7-S-8          0          0          0          0          0
C127ST-N-1       0          0          0          0          0
C127ST-N-2       0          0          0          0          0
C127ST-N-3       0          0          0          0          0
C127ST-N-4       0          0          0          0          0
C127ST-S-2       0          0          0          0          0
C127ST-S-5       0          0          0          0          0
C127ST-S-6       0          0          0          0          0
C127ST-S-4       0          0          0          0          0
C127ST-S-3       0          0          0          0          0
CRR-N-1          0          0          0          0          0
CC7-S-3          0          0          0          0          0
CC7-S-4          0          0          0          0          0
CC7-S-5          0          0          0          0          0
CC7-S-7          0          0          0          0          0
CC7-S-9          0          0          0          0          0
CSPUR-N-1        0          0          0          0          0
CC7-N-9          0          0          0          0          0
CC7-S-10         0          0          0          0          0
CC7-N-10         0          0          0          0          0
CC7-N-11         0          0          0          0          0
CC7-N-12         0          0          0          0          0
CC7-N-13         0          0          0          0          0
CC7-N-14         0          0          0          0          0
CC7-N-15         0          0          0          0          0
CC7-N-16         0          0          0          0          0
S-27A            10.00      0          14.60      0          0
C7-115N          10.00      0          14.60      0          0
CC7-S-11         0          0          0          0          0
CC7-S-12         0          0          0          0          0
CC7-S-13         0          0          0          0          0
CC7-S-14         0          0          0          0          0
CC7-S-15         0          0          0          0          0
CC7-S-16         0          0          0          0          0
CC7-S-17         0          0          0          0          0
CC7-S-18         0          0          0          0          0
CC7-S-19         0          0          0          0          0
CC7-S-20         0          0          0          0          0
CC7-S-21         0          0          0          0          0
CC7-S-22         0          0          0          0          0
CC7-S-23         0          0          0          0          0
98ST             10.00      0          15.90      0          0
SPUR-N-1NA       10.00      0          6.20       0          0
119ST-N-2        0          0          0          0          0
CPTTO-N-1        0          0          0          0          0
CC7-N-3          0          0          0          0          0
S-27             10.00      0          14.60      0          0
C7-101N          10.10      0          14.60      0          0

[STORAGE]
;;Name           Elev       MaxDepth   InitDepth  Shape      Curve/Params
;;-------------- ---------- ---------- ---------- ---------- ----------
SPUR-N-2N        10.00      0          8.90       FUNCTIONAL 0 0          0
C7-109N          15.00      -8.00      15.20      FUNCTIONAL 0 0          0
C127ST-S-1       15.00      0          12.10      FUNCTIONAL 0 0          0
SPUR-N-1N        10.00      0          8.90       FUNCTIONAL 0 0          0
C-6              15.00      -4.30      10.10      FUNCTIONAL 9999999.00 0          0

[CONDUITS]
;;Name           From             To               Length     Roughness  InOffset   OutOffset  InitFlow   MaxFlow
;;-------------- ---------------- ---------------- ---------- ---------- ---------- ---------- ---------- ----------
U-16             U-16NW           U-16SE           100.00     0.0280     -3.90      -3.90      0          0
U-17             U-17W            U-17E            124.00     0.0270     -3.18      -3.40      0          0
GTY-N-2          U-17E            U-18W            1530.00    0          -10.00     -10.01     0          0
U-18             U-18W            U-18E            59.00      0.0270     -4.52      -5.62      0          0
U-20             U-19N            U-20N            120.00     0.0270     -3.85      -4.60      0          0
PP-N-2           U-16SE           U-20N            5510.00    0          -9.30      -9.30      0          0
GTY-N-3          U-18E            U-19N            630.00     0          -11.00     -11.01     0          0
U-19             U-19N            U-19S            102.00     0.0270     -8.96      -8.96      0          0
U-62             U-62E            U-62W            120.00     0.0270     -8.50      -8.90      0          0
C7-101           C7-101N          U-62E            2460.00    0          -11.50     -11.50     0          0
PP-N-3           U-19S            C7-101N          5100.00    0          -12.50     -12.50     0          0
GTY-N-4A         U-21E            U-22W            260.00     0          -7.80      -7.80      0          0
U-22             U-22W            U-22E            137.00     0.0270     -3.90      -4.20      0          0
GTY-N-4B         U-22E            U-23W            880.00     0          -7.00      -7.01      0          0
U-23             U-23W            U-23E            70.00      0.0260     -3.10      -3.10      0          0
GTY-N-5A         U-23E            U-24W            700.00     0          -5.00      -5.01      0          0
U-24             U-24W            U-24E            714.00     0.0260     -3.00      -3.50      0          0
GTY-N-5B         U-24E            U-25W            670.00     0          -3.50      -3.50      0          0
U-25             U-25W            U-25E            71.00      0.0270     -1.00      -1.50      0          0
GTY-N-5C         U-25E            U26-W            690.00     0          -6.40      -6.40      0          0
U-26             U26-W            U-26E            28.00      0.0270     -3.00      -3.01      0          0
GTY-N-5D         U-26E            U-27W            110.00     0          -1.80      -1.80      0          0
U-27             U-27W            U-27E            50.00      0.0260     -2.00      -2.01      0          0
GTY-N-5E         U-27E            U-28W            99.00      0          -5.30      -5.30      0          0
U-28             U-28W            U-28E            448.00     0.0240     -2.70      -2.70      0          0
GTY-N-5F         U-28E            U-29W            430.00     0          -8.50      -8.50      0          0
C7-102           C7-102N          C7-101N          5380.00    0          -10.50     -10.50     0          0
C7-103           C7-103N          C7-102N          5280.00    0          -8.30      -8.30      0          0
GTY-N-6          U-29E            U-30W            1660.00    0          -7.00      -7.01      0          0
U-30             U-30W            U-42N            3270.00    0.0270     -4.30      -4.30      0          0
U-33             U-33S            U-33N            805.00     0.0270     -3.20      -3.50      0          0
RR-N-2A          U-34N            U-33S            170.00     0          -6.30      -6.30      0          0
U-34             U-34S            U-34N            25.00      0.0190     0.80       0.70       0          0
RR-N-2B          U-35N            U-34S            270.00     0          -6.00      -6.01      0          0
U-35             U-35S            U-35N            82.00      0.0270     -2.97      -3.50      0          0
RR-N-2C          U-36N            U-35S            320.00     0.0140     -6.00      -6.01      0          0
U-36             U-36S            U-36N            26.00      0.0270     -1.50      -1.50      0          0
RR-N-2D          U-37N            U-36S            290.00     0          -7.10      -7.10      0          0
U-37             U-37S            U-37N            22.00      0.0270     -2.30      -2.35      0          0
RR-N-2E          U-38N            U-37S            230.00     0          -8.00      -8.01      0          0
U-38             U-38S            U-38N            15.00      0.0270     -1.60      -1.60      0          0
RR-N-2F          U-39N            U-38S            510.00     0          -6.80      -6.80      0          0
U-39             U-39S            U-39N            16.00      0.0270     1.28       -0.40      0          0
RR-N-2G          U-40N            U-39S            220.00     0          -8.00      -8.01      0          0
U-40             U-40S            U-40N            60.00      0.0260     -3.10      -3.15      0          0
RR-N-2H          U-41N            U-40S            40.00      0          -5.00      -5.01      0          0
U-41             U-41S            U-41N            21.00      0.0200     -0.40      -0.50      0          0
RR-N-2I          U-42N            U-41S            170.00     0          -5.00      -5.01      0          0
RR-N-3A          U-43N            U-42S            1010.00    0          -7.70      -7.70      0          0
RR-N-3B          U-44N            U-43S            1420.00    0          -8.70      -8.70      0          0
RR-N-4A          U-45N            U-44S            1230.00    0          -7.80      -7.80      0          0
RR-N-4B          U-46N            U-45S            780.00     0          -8.00      -8.01      0          0
U-43A            U-43B            U-43N            128.00     0.0190     -1.55      -2.10      0          0
U-44A            U-44B            U-44C            77.00      0.0200     -0.90      -1.30      0          0
U-45A            U-45B            U-45C            80.00      0.0200     -2.25      -2.70      0          0
U-46A            U-46B            U-46C            108.00     0.0200     -2.40      -2.40      0          0
U-52             U-52S            U-52N            112.00     0.0200     -1.50      -1.70      0          0
RR-S-2           U-52N            U-51S            1180.00    0          -6.70      -6.70      0          0
RR-S-3           U-51N            U-50S            1110.00    0          -6.20      -6.20      0          0
U-50             U-50S            U-50N            82.00      0.0250     -1.40      -1.50      0          0
RR-S-4           U-50N            U-49S            1310.00    0          -8.30      -8.30      0          0
U-49             U-49S            U-49N            84.00      0.0270     -0.40      -0.60      0          0
RR-S-5           U-49N            U-47S            1400.00    0          -5.50      -5.50      0          0
RR-S-6           U-47N            C7-103N          1430.00    0          -6.90      -6.90      0          0
98ST-2           U-31E            U-48W            2430.00    0          -11.70     -11.70     0          0
U-48A            U-48B            U-49N            49.00      0.0200     -2.30      -2.80      0          0
C7-104           C7-103N          C7-104N          3900.00    0          -8.40      -8.40      0          0
C7-105           C7-104N          C7-105N          3930.00    0          -10.30     -10.30     0          0
C7-106           C7-105N          C7-106N          2220.00    0          -9.30      -9.30      0          0
C7-107           C7-106N          C7-107N          3200.00    0          -9.00      -9.01      0          0
C7-108           C7-107N          C7-108N          2680.00    0          -5.00      -5.01      0          0
127ST-2          127ST-1N         U-53W            1257.00    0          -5.70      -5.70      0          0
U-53             U-53W            U-53E            140.00     0.0270     -4.00      -4.01      0          0
127ST-3          U-53E            U-54W            3658.00    0          -15.20     -15.20     0          0
U-54             U-54W            U-54E            151.00     0.0270     -4.00      -4.01      0          0
127ST-4          U-54E            U-55W            1140.00    0          -4.80      -4.80      0          0
U-55             U-55W            U-55E            24.00      0.0250     -2.50      -2.50      0          0
127ST-5          U-55E            127ST-5N         1400.00    0          -3.20      -3.20      0          0
SPUR-N-1         127ST-5N         SPUR-N-1N        4200.00    0          -4.10      -4.10      0          0
SPUR-N-3         SPUR-N-2N        C7-109N          2050.00    0          -6.80      -6.80      0          0
C7-110           C7-109N          C7-110N          2600.00    0          -13.10     -13.10     0          0
C7-109           C7-108N          C7-109N          2760.00    0          -9.50      -9.50      0          0
C7-111           C7-110N          C7-111N          1450.00    0          -8.90      -8.90      0          0
C7-112           C7-111N          C7-112N          4750.00    0          -6.50      -6.50      0          0
C7-113           C7-112N          C7-113N          2680.00    0          -11.10     -11.10     0          0
C7-114           C7-113N          C7-114N          4080.00    0          -12.10     -12.10     0          0
U-21A            U-21B            U-21E            376.00     0.0240     -4.60      -4.60      0          0
U-29A            U-29B            U-29E            448.00     0.0240     -2.70      -2.70      0          0
U-42A            U-42B            U-42C            231.00     0.0270     -2.22      -2.22      0          0
U-47A            U47-B            U-47N            128.00     0.0260     1.86       -1.30      0          0
U-31A            U-31B            U-31E            100.00     0.0200     -0.30      -0.32      0          0
U-51A            U-51B            U-51N            80.00      0.0190     -0.40      -0.60      0          0
223              CPP-N-1          U-19N            0          0          0          0          0          0
225              CC7-N-1          C7-101N          0          0          0          0          0          0
229              CGTY-N-1         U-29W            0          0          0          0          0          0
231              CGTY-N-3         U-42N            0          0          0          0          0          0
233              CGTY-N-4         U-42N            0          0          0          0          0          0
235              C98ST-1          U-48W            0          0          0          0          0          0
237              CGTY-N-2         U-29W            0          0          0          0          0          0
239              CC7-N-2          C7-102N          0          0          0          0          0          0
241              CC7-N-4          C7-103N          0          0          0          0          0          0
247              CC7-N-5          C7-104N          0          0          0          0          0          0
248              CC7-N-6          C7-105N          0          0          0          0          0          0
249              CC7-N-7          C7-106N          0          0          0          0          0          0
250              CC7-N-8          C7-107N          0          0          0          0          0          0
257              CC7-S-1          C7-104N          0          0          0          0          0          0
258              CC7-S-2          C7-105N          0          0          0          0          0          0
260              CC7-S-6          C7-107N          0          0          0          0          0          0
261              CC7-S-8          C7-108N          0          0          0          0          0          0
266              C127ST-N-1       127ST-1N         0          0          0          0          0          0
267              C127ST-N-2       U-53W            0          0          0          0          0          0
268              C127ST-N-3       U-54W            0          0          0          0          0          0
269              C127ST-N-4       127ST-5N         0          0          0          0          0          0
275              C127ST-S-2       U-53W            0          0          0          0          0          0
276              C127ST-S-5       U-54W            0          0          0          0          0          0
277              C127ST-S-6       127ST-5N         0          0          0          0          0          0
279              C127ST-S-4       U-54W            0          0          0          0          0          0
281              C127ST-S-3       U-53W            0          0          0          0          0          0
283              CRR-N-1          U-42N            0          0          0          0          0          0
291              CC7-S-3          C7-105N          0          0          0          0          0          0
292              CC7-S-4          C7-106N          0          0          0          0          0          0
293              CC7-S-5          C7-107N          0          0          0          0          0          0
294              CC7-S-7          C7-107N          0          0          0          0          0          0
295              CC7-S-9          C7-108N          0          0          0          0          0          0
299              CSPUR-N-1        SPUR-N-2N        0          0          0          0          0          0
300              CC7-N-9          C7-110N          0          0          0          0          0          0
301              CC7-S-10         C7-109N          0          0          0          0          0          0
306              CC7-N-10         C7-113N          0          0          0          0          0          0
307              CC7-N-11         C7-113N          0          0          0          0          0          0
308              CC7-N-12         C7-114N          0          0          0          0          0          0
309              CC7-N-13         C7-114N          0          0          0          0          0          0
316              CC7-N-16         S-27A            0          0          0          0          0          0
C7-115           C7-114N          C7-115N          1260.00    0          -9.20      -9.20      0          0
C7-116           C7-115N          S-27A            2280.00    0          -12.50     -12.50     0          0
321              CC7-N-14         C7-115N          0          0          0          0          0          0
322              CC7-N-15         C7-115N          0          0          0          0          0          0
325              CC7-S-11         C7-109N          0          0          0          0          0          0
326              CC7-S-12         C7-111N          0          0          0          0          0          0
332              CC7-S-13         C7-112N          0          0          0          0          0          0
333              CC7-S-14         C7-112N          0          0          0          0          0          0
334              CC7-S-15         C7-112N          0          0          0          0          0          0
337              CC7-S-16         C7-114N          0          0          0          0          0          0
338              CC7-S-17         C7-113N          0          0          0          0          0          0
342              CC7-S-18         C7-113N          0          0          0          0          0          0
343              CC7-S-19         C7-113N          0          0          0          0          0          0
348              CC7-S-21         C7-115N          0          0          0          0          0          0
349              CC7-S-22         C7-114N          0          0          0          0          0          0
350              CC7-S-23         S-27A            0          0          0          0          0          0
351              CC7-S-20         C7-114N          0          0          0          0          0          0
98ST-1           98ST             U-31W            2515.00    0          -13.80     -13.80     0          0
SPUR-N1A         SPUR-N-1NA       127ST-5N         3090.00    0          -4.10      -4.10      0          0
357              119ST-N-2        SPUR-N-2N        0          0          0          0          0          0
359              CPTTO-N-1        U-20N            0          0          0          0          0          0
361              CC7-N-3          C7-102N          0          0          0          0          0          0
C-716A           S-27A            S-27             50.00      0          -12.50     -12.50     0          0
SPUR-N-2         SPUR-N-1N        SPUR-N-2N        2200.00    0          -6.80      -6.80      0          0
CULVERT          SHEET1           SHEET2           356.00     0.0140     -8.00      -8.01      0          0
OPA-EX           127ST-1N         C127ST-S-1       129.00     0.0140     4.64       4.60       0          0

[XSECTIONS]
;;Link           Shape        Geom1      Geom2      Geom3      Geom4      Barrels
;;-------------- ------------ ---------- ---------- ---------- ---------- ----------
U-16             CIRCULAR     2.00       8.00       0          0          1
U-17             CIRCULAR     7.00       0          0          0          1
GTY-N-2          IRREGULAR    0          0          0          0          1
U-18             CIRCULAR     9.00       0          0          0          1
U-20             CIRCULAR     11.50      0          0          0          1
PP-N-2           IRREGULAR    0          0          0          0          1
GTY-N-3          IRREGULAR    0          0          0          0          1
U-19             CIRCULAR     17.00      20.00      0          0          1
U-62             HORSESHOE    25.00      0          0          0          1
C7-101           IRREGULAR    0          0          0          0          1
PP-N-3           IRREGULAR    0          0          0          0          1
GTY-N-4A         IRREGULAR    0          0          0          0          1
U-22             CIRCULAR     7.25       0          0          0          1
GTY-N-4B         IRREGULAR    0          0          0          0          1
U-23             CIRCULAR     6.00       0          0          0          1
GTY-N-5A         IRREGULAR    0          0          0          0          1
U-24             CIRCULAR     6.00       0          0          0          1
GTY-N-5B         IRREGULAR    0          0          0          0          1
U-25             HORSESHOE    4.50       0          0          0          1
GTY-N-5C         IRREGULAR    0          0          0          0          1