;; SWMM5 .inp converted from XPSWMM .xp file
;; Generated by XPSWMM Card Reader
;; Source format: XP_CARD | Original title: ALCOSAN DRY WEATHER   FREE OUTFALL AT WWTP (EL. 660)   NO GRIT, BEST Q, N E

[TITLE]
;;Project Title/Notes
ALCOSAN DRY WEATHER   FREE OUTFALL AT WWTP (EL. 660)   NO GRIT, BEST Q, N E

[OPTIONS]
FLOW_UNITS           CFS
INFILTRATION         HORTON
FLOW_ROUTING         DYNWAVE
LINK_OFFSETS         DEPTH
MIN_SLOPE            0.0
ALLOW_PONDING        NO
SKIP_STEADY_STATE    NO
ROUTING_STEP         00:00:05
VARIABLE_STEP        0.75
INERTIAL_DAMPING     NONE
NORMAL_FLOW_LIMITED  BOTH
MAX_TRIALS           100

[JUNCTIONS]
;;Name           Elev       MaxDepth   InitDepth  SurDepth   Aponded
;;-------------- ---------- ---------- ---------- ---------- ----------
0                712.00     0          0          0          0
0                713.00     0          0          0          0
0                734.30     0          0          0          0
0                713.00     0          0          0          0
0                712.60     0          0          0          0
0                730.00     0          0          0          0
0                738.00     0          0          0          0
0                730.00     0          0          0          0
0                728.00     0          0          0          0
0                728.00     0          0          0          0
0                713.00     0          0          0          0
0                713.30     0          0          0          0
0                720.60     0          0          0          0
0                730.20     0          0          0          0
0                717.90     0          0          0          0
0                729.00     0          0          0          0
0                733.70     0          0          0          0
0                717.00     0          0          0          0
0                721.30     0          0          0          0
0                719.30     0          0          0          0
0                716.50     0          0          0          0
0                715.00     0          0          0          0
0                711.30     0          0          0          0
0                715.00     0          0          0          0
0                707.70     0          0          0          0
0                719.80     0          0          0          0
0                750.00     0          0          0          0
0                760.00     0          0          0          0
0                762.50     0          0          0          0
0                738.00     0          0          0          0
0                748.50     0          0          0          0
0                746.30     0          0          0          0
0                718.00     0          0          0          0
0                713.50     0          0          0          0
0                744.70     0          0          0          0
0                738.20     0          0          0          0
0                736.00     0          0          0          0
0                735.30     0          0          0          0
0                736.70     0          0          0          0
0                737.40     0          0          0          0
0                735.10     0          0          0          0
0                735.60     0          0          0          0
0                735.60     0          0          0          0
0                768.40     0          0          0          0
0                771.30     0          0          0          0
0                752.60     0          0          0          0
0                717.80     0          0          0          0
0                718.00     0          0          0          0
0                710.00     0          0          0          0
0                721.50     0          0          0          0
0                718.00     0          0          0          0
0                721.50     0          0          0          0
0                715.40     0          0          0          0
0                717.80     0          0          0          0
0                711.80     0          0          0          0
0                715.00     0          0          0          0
0                721.40     0          0          0          0
0                723.10     0          0          0          0
0                713.00     0          0          0          0
0                724.10     0          0          0          0
0                729.10     0          0          0          0
0                723.90     0          0          0          0
0                719.80     0          0          0          0
0                716.30     0          0          0          0
0                711.60     0          0          0          0
0                711.00     0          0          0          0
0                721.00     0          0          0          0
0                727.00     0          0          0          0
0                719.00     0          0          0          0
0                728.30     0          0          0          0
0                725.10     0          0          0          0
0                722.00     0          0          0          0
0                712.00     0          0          0          0
0                723.80     0          0          0          0
0                715.80     0          0          0          0
0                721.00     0          0          0          0
0                716.00     0          0          0          0
0                723.00     0          0          0          0
0                711.60     0          0          0          0
0                723.00     0          0          0          0
0                715.50     0          0          0          0
0                720.50     0          0          0          0
0                722.10     0          0          0          0
0                721.00     0          0          0          0
0                720.00     0          0          0          0
0                715.40     0          0          0          0
0                715.70     0          0          0          0
0                715.20     0          0          0          0
0                717.10     0          0          0          0
0                716.10     0          0          0          0
0                716.10     0          0          0          0
0                716.30     0          0          0          0
0                716.50     0          0          0          0
0                715.90     0          0          0          0
0                718.70     0          0          0          0
0                728.30     0          0          0          0
0                730.70     0          0          0          0
0                724.00     0          0          0          0
0                727.00     0          0          0          0
0                728.00     0          0          0          0
0                731.00     0          0          0          0
0                728.10     0          0          0          0
0                731.20     0          0          0          0
0                732.00     0          0          0          0
0                732.40     0          0          0          0
0                735.60     0          0          0          0
0                733.80     0          0          0          0
0                732.00     0          0          0          0
0                730.80     0          0          0          0
0                731.40     0          0          0          0
0                733.00     0          0          0          0
0                728.10     0          0          0          0
0                730.80     0          0          0          0
0                735.50     0          0          0          0
0                736.60     0          0          0          0
0                721.50     0          0          0          0
0                715.70     0          0          0          0
0                718.00     0          0          0          0
0                723.50     0          0          0          0
0                740.00     0          0          0          0
0                716.60     0          0          0          0
0                729.30     0          0          0          0
0                720.00     0          0          0          0
0                723.50     0          0          0          0
0                738.70     0          0          0          0
0                713.50     0          0          0          0
0                710.00     0          0          0          0
0                718.40     0          0          0          0
0                713.50     0          0          0          0
0                724.00     0          0          0          0
0                734.20     0          0          0          0
0                721.00     0          0          0          0
0                733.50     0          0          0          0
0                727.00     0          0          0          0
0                723.50     0          0          0          0
0                724.80     0          0          0          0
0                838.90     0          0          0          0
0                734.20     0          0          0          0
0                731.40     0          0          0          0
0                732.90     0          0          0          0
0                822.00     0          0          0          0
0                730.20     0          0          0          0
0                722.80     0          0          0          0
0                801.50     0          0          0          0
0                712.80     0          0          0          0
0                698.40     0          0          0          0
0                736.20     0          0          0          0
0                710.00     0          0          0          0
0                721.50     0          0          0          0
0                714.90     0          0          0          0
0                713.80     0          0          0          0
0                727.00     0          0          0          0
0                725.00     0          0          0          0
0                722.20     0          0          0          0
0                747.97     0          0          0          0
0                744.27     0          0          0          0
0                749.81     0          0          0          0
0                747.84     0          0          0          0
0                746.24     0          0          0          0
0                746.86     0          0          0          0
0                749.51     0          0          0          0
0                749.26     0          0          0          0
0                747.03     0          0          0          0
0                745.63     0          0          0          0
0                742.52     0          0          0          0
0                752.12     0          0          0          0
0                747.40     0          0          0          0
0                749.37     0          0          0          0
0                748.58     0          0          0          0
0                745.68     0          0          0          0
0                745.50     0          0          0          0
0                749.62     0          0          0          0
0                748.96     0          0          0          0
0                747.94     0          0          0          0
0                749.81     0          0          0          0
0                749.03     0          0          0          0
0                749.40     0          0          0          0
0                748.41     0          0          0          0
0                747.94     0          0          0          0
0                749.10     0          0          0          0
0                750.46     0          0          0          0
0                750.70     0          0          0          0
0                751.30     0          0          0          0
0                750.72     0          0          0          0
0                750.93     0          0          0          0
0                749.26     0          0          0          0
0                749.42     0          0          0          0
0                747.08     0          0          0          0
0                0          0          0          0          0
0                0          0          0          0          0
0                0          0          0          0          0
0                0          0          0          0          0
0                0          0          0          0          0
0                0          0          0          0          0
0                0          0          0          0          0
0                0          0          0          0          0
0                0          0          0          0          0
0                0          0          0          0          0
0                0          0          0          0          0
0                0          0          0          0          0
0                0          0          0          0          0
0                0          0          0          0          0
0                0          0          0          0          0
0                0          0          0          0          0
0                0          0          0          0          0
0                0          0          0          0          0
0                0          0          0          0          0
0                0          0          0          0          0
0                0          0          0          0          0
0                0          0          0          0          0
0                0          0          0          0          0
0                0          0          0          0          0
0                0          0          0          0          0
0                0          0          0          0          0
0                0          0          0          0          0
0                0          0          0          0          0
0                0          0          0          0          0
0                0          0          0          0          0
0                0          0          0          0          0
0                0          0          0          0          0
0                0          0          0          0          0
0                0          0          0          0          0
0                0          0          0          0          0
0                0          0          0          0          0
0                0          0          0          0          0
0                0          0          0          0          0
0                0          0          0          0          0
0                0          0          0          0          0
0                0          0          0          0          0
0                0          0          0          0          0
0                0          0          0          0          0
0                0          0          0          0          0
0                0          0          0          0          0
0                0          0          0          0          0
0                0          0          0          0          0
0                0          0          0          0          0
0                0          0          0          0          0
0                0          0          0          0          0
0                0          0          0          0          0
0                0          0          0          0          0
0                0          0          0          0          0
0                0          0          0          0          0
0                0          0          0          0          0
0                0          0          0          0          0
0                0          0          0          0          0
0                0          0          0          0          0
0                0          0          0          0          0
0                0          0          0          0          0
0                0          0          0          0          0
0                0          0          0          0          0
0                0          0          0          0          0
0                0          0          0          0          0
0                0          0          0          0          0
0                0          0          0          0          0
0                0          0          0          0          0
0                0          0          0          0          0
0                0          0          0          0          0
0                0          0          0          0          0
0                0          0          0          0          0
0                0          0          0          0          0
0                0          0          0          0          0
0                0          0          0          0          0
0                0          0          0          0          0
0                0          0          0          0          0
0                0          0          0          0          0
0                0          0          0          0          0
0                0          0          0          0          0
0                0          0          0          0          0
0                0          0          0          0          0
0                0          0          0          0          0
0                0          0          0          0          0
0                0          0          0          0          0
0                0          0          0          0          0
0                0          0          0          0          0
0                0          0          0          0          0
0                0          0          0          0          0
0                0          0          0          0          0
0                0          0          0          0          0
0                0          0          0          0          0
0                0          0          0          0          0
0                0          0          0          0          0
0                0          0          0          0          0
0                0          0          0          0          0
0                0          0          0          0          0
0                0          0          0          0          0
0                0          0          0          0          0
0                0          0          0          0          0
0                0          0          0          0          0
0                0          0          0          0          0
0                0          0          0          0          0
0                0          0          0          0          0
0                0          0          0          0          0
0                0          0          0          0          0
0                0          0          0          0          0
0                0          0          0          0          0
0                0          0          0          0          0
0                0          0          0          0          0
0                0          0          0          0          0
0                0          0          0          0          0
0                0          0          0          0          0
0                0          0          0          0          0
0                0          0          0          0          0
0                0          0          0          0          0
0                0          0          0          0          0
0                0          0          0          0          0
0                0          0          0          0          0
0                0          0          0          0          0
0                0          0          0          0          0
0                0          0          0          0          0
0                0          0          0          0          0
0                0          0          0          0          0
0                0          0          0          0          0
0                0          0          0          0          0
0                0          0          0          0          0
0                0          0          0          0          0
0                0          0          0          0          0
0                0          0          0          0          0
0                0          0          0          0          0
0                0          0          0          0          0
0                0          0          0          0          0
0                0          0          0          0          0
0                0          0          0          0          0
0                0          0          0          0          0
0                0          0          0          0          0
0                0          0          0          0          0
0                0          0          0          0          0
0                0          0          0          0          0
0                0          0          0          0          0
0                0          0          0          0          0
0                0          0          0          0          0
0                0          0          0          0          0
0                0          0          0          0          0
0                0          0          0          0          0
0                0          0          0          0          0
0                0          0          0          0          0
0                0          0          0          0          0
0                0          0          0          0          0
0                0          0          0          0          0
0                0          0          0          0          0
0                0          0          0          0          0
0                0          0          0          0          0
0                0          0          0          0          0
0                0          0          0          0          0
0                0          0          0          0          0
0                0          0          0          0          0
0                0          0          0          0          0
0                0          0          0          0          0
0                0          0          0          0          0
0                0          0          0          0          0
0                0          0          0          0          0
0                0          0          0          0          0
0                0          0          0          0          0
0                0          0          0          0          0
0                0          0          0          0          0
0                0          0          0          0          0
0                0          0          0          0          0
0                0          0          0          0          0
0                0          0          0          0          0
0                0          0          0          0          0
0                0          0          0          0          0
0                0          0          0          0          0
0                0          0          0          0          0
0                0          0          0          0          0
0                0          0          0          0          0
0                0          0          0          0          0
0                0          0          0          0          0
0                0          0          0          0          0
0                0          0          0          0          0
0                0          0          0          0          0
0                0          0          0          0          0
0                0          0          0          0          0
0                0          0          0          0          0
0                0          0          0          0          0
0                0          0          0          0          0
0                0          0          0          0          0
0                0          0          0          0          0
0                0          0          0          0          0
0                0          0          0          0          0
0                0          0          0          0          0
0                0          0          0          0          0
0                0          0          0          0          0
0                0          0          0          0          0
0                0          0          0          0          0
0                0          0          0          0          0
0                0          0          0          0          0
0                0          0          0          0          0
0                0          0          0          0          0
0                0          0          0          0          0
0                0          0          0          0          0
0                0          0          0          0          0
0                0          0          0          0          0
0                0          0          0          0          0
0                0          0          0          0          0
0                0          0          0          0          0
0                0          0          0          0          0
0                0          0          0          0          0
0                0          0          0          0          0
0                0          0          0          0          0
0                0          0          0          0          0
0                0          0          0          0          0
0                0          0          0          0          0
0                0          0          0          0          0
0                0          0          0          0          0
0                0          0          0          0          0
0                0          0          0          0          0
0                0          0          0          0          0
0                0          0          0          0          0
0                0          0          0          0          0
0                0          0          0          0          0
0                0          0          0          0          0
0                0          0          0          0          0
0                0          0          0          0          0
0                0          0          0          0          0
0                0          0          0          0          0
0                0          0          0          0          0
0                0          0          0          0          0
0                0          0          0          0          0
0                0          0          0          0          0
0                0          0          0          0          0
0                0          0          0          0          0
0                0          0          0          0          0
0                0          0          0          0          0
0                0          0          0          0          0
0                0          0          0          0          0
0                0          0          0          0          0
0                0          0          0          0          0
0                0          0          0          0          0
0                0          0          0          0          0
0                0          0          0          0          0
0                0          0          0          0          0
0                0          0          0          0          0
0                0          0          0          0          0
0                0          0          0          0          0
0                0          0          0          0          0
0                0          0          0          0          0
0                0          0          0          0          0
0                0          0          0          0          0
0                0          0          0          0          0
0                0          0          0          0          0
0                0          0          0          0          0
0                0          0          0          0          0
0                0          0          0          0          0
0                0          0          0          0          0
0                0          0          0          0          0
0                0          0          0          0          0
0                0          0          0          0          0
0                0          0          0          0          0
0                0          0          0          0          0
0                0          0          0          0          0
0                0          0          0          0          0
0                0          0          0          0          0
0                0          0          0          0          0
0                0          0          0          0          0
0                0          0          0          0          0
0                0          0          0          0          0
0                0          0          0          0          0
0                0          0          0          0          0
0                0          0          0          0          0
0                0          0          0          0          0
0                0          0          0          0          0
0                0          0          0          0          0
0                0          0          0          0          0
0                0          0          0          0          0