;; SWMM5 .inp converted from XPSWMM .xp file
;; Generated by XPSWMM Card Reader
;; Source format: XP_CARD | Original title: Metropolitan Water District    1/18/97 14:17

[TITLE]
;;Project Title/Notes
Metropolitan Water District    1/18/97 14:17

[OPTIONS]
FLOW_UNITS           CFS
INFILTRATION         HORTON
FLOW_ROUTING         DYNWAVE
LINK_OFFSETS         DEPTH
MIN_SLOPE            0.0
ALLOW_PONDING        NO
SKIP_STEADY_STATE    NO
ROUTING_STEP         00:00:10
VARIABLE_STEP        0.75
INERTIAL_DAMPING     NONE
NORMAL_FLOW_LIMITED  BOTH
MAX_TRIALS           30

[JUNCTIONS]
;;Name           Elev       MaxDepth   InitDepth  SurDepth   Aponded
;;-------------- ---------- ---------- ---------- ---------- ----------
85201            1950.00    0          0.92       0          0
5202             1950.00    0          0.97       0          0
5203             1950.00    0          0.95       0          0
5204             1950.00    0          89.66      0          0
5205             1950.00    0          41.62      0          0
5206             1950.00    0          124.48     0          0
5207             1950.00    0          124.38     0          0
5208             1950.00    0          124.38     0          0
5209             1950.00    0          1.29       0          0
5210             1950.00    0          56.31      0          0
5211             1950.00    0          153.73     0          0
5212             1900.00    0          1.06       0          0
5213             1900.00    0          100.79     0          0
5214             1900.00    0          12.48      0          0
5215             1900.00    0          30.10      0          0
5216             1850.00    0          120.00     0          0
5217             1850.00    0          1.12       0          0
5218             1850.00    0          107.98     0          0
5219             1850.00    0          4.67       0          0
5220             1850.00    0          1.18       0          0
5221             1800.00    0          9.07       0          0
5222             1800.00    0          209.04     0          0
5223             1800.00    0          52.00      0          0
75223            1800.00    0          2.55       0          0
5224             1600.00    0          0.48       0          0
5225             1600.00    0          0.51       0          0
5226             1350.00    0          0.58       0          0
5227             1350.00    0          60.00      0          0
5228             1350.00    0          58.61      0          0
75228            1350.00    0          8.61       0          0
5229             1350.00    0          48.61      0          0
5230             1150.00    0          0.58       0          0
5231             1150.00    0          56.62      0          0
5302             1950.00    0          44.31      0          0
5303             1950.00    0          394.31     0          0
5304             1950.00    0          534.31     0          0
75304            1200.00    0          0.00       0          0
5305             1200.00    0          0.00       0          0
5306             1200.00    0          21.75      0          0
5401             1300.00    0          3.99       0          0
5402             1300.00    0          2.50       0          0
5403             1300.00    0          16.16      0          0
5404             1300.00    0          1.19       0          0
5405             1300.00    0          32.81      0          0
5406             1300.00    0          363.67     0          0
5407             1300.00    0          68.17      0          0
5408             1300.00    0          64.23      0          0
5409             1300.00    0          156.71     0          0
5410             1300.00    0          24.59      0          0
5411             1300.00    0          143.98     0          0
5412             1300.00    0          711.36     0          0
5413             1300.00    0          138.56     0          0
5414             1300.00    0          137.64     0          0
5415             1300.00    0          329.77     0          0
5416             1300.00    0          122.05     0          0
5417             1300.00    0          563.50     0          0
75417            1300.00    0          316.16     0          0
5418             1300.00    0          134.49     0          0
5608             1300.00    0          250.00     0          0
5602             1150.00    0          306.06     0          0
5603             1150.00    0          90.91      0          0
5604             1150.00    0          95.64      0          0
5605             1150.00    0          294.72     0          0
5606             1150.00    0          543.63     0          0
5607             1150.00    0          553.48     0          0
75608            1150.00    0          513.39     0          0
5609             1300.00    0          250.00     0          0
5702             1275.00    0          1.72       0          0
5703             1275.00    0          194.84     0          0
5704             1275.00    0          317.31     0          0
5705             1275.00    0          432.07     0          0
5706             1275.00    0          372.61     0          0
5707             1275.00    0          440.21     0          0
5708             1275.00    0          439.60     0          0
5709             1275.00    0          419.00     0          0
5710             1275.00    0          368.55     0          0
5711             1275.00    0          348.24     0          0
5712             1275.00    0          307.44     0          0
5713             1275.00    0          266.99     0          0
5714             1275.00    0          1.38       0          0
5715             1275.00    0          247.41     0          0
5716             1275.00    0          340.60     0          0
5717             1275.00    0          298.27     0          0
5718             1275.00    0          254.82     0          0
5719             1275.00    0          234.50     0          0
5720             1200.00    0          53.88      0          0
5721             1200.00    0          2.19       0          0
5722             1200.00    0          137.93     0          0
5723             1200.00    0          23.02      0          0
5725             1200.00    0          33.13      0          0
5727             1200.00    0          22.00      0          0

[CONDUITS]
;;Name           From             To               Length     Roughness  InOffset   OutOffset  InitFlow   MaxFlow
;;-------------- ---------------- ---------------- ---------- ---------- ---------- ---------- ---------- ----------
P5201            85201            5202             1134.00    0.0130     1933.00    1879.00    0          0
P5202            5202             5203             614.00     0.0130     1879.00    1855.00    0          0
P5203            5203             5204             5698.00    0.0120     1855.00    1635.00    0          0
P5204            5204             5205             3156.00    0.0120     1635.00    1683.00    0          0
P5205            5205             5206             9922.00    0.0120     1683.00    1600.00    0          0
P5206            5206             5207             7990.00    0.0120     1600.00    1600.00    0          0
P5207            5207             5208             10.00      0.0120     1600.00    1600.00    0          0
P5208            5208             5209             11294.00   0.0120     1600.00    1722.00    0          0
P5209            5209             5210             7785.00    0.0120     1722.00    1638.00    0          0
P5210            5210             5211             12612.00   0.0120     1638.00    1540.00    0          0
P5211            5211             5212             8626.00    0.0120     1540.00    1690.00    0          0
P5212            5212             5213             3997.00    0.0120     1690.00    1560.00    0          0
P5213            5213             5214             6838.00    0.0120     1560.00    1648.00    0          0
P5214            5214             5215             8310.00    0.0120     1648.00    1630.00    0          0
P5215            5215             5216             6628.00    0.0120     1630.00    1540.00    0          0
P5216            5216             5217             8310.00    0.0120     1540.00    1658.00    0          0
P5217            5217             5218             5441.00    0.0120     1658.00    1550.00    0          0
P5218            5218             5219             9984.00    0.0120     1550.00    1653.00    0          0
P5219            5219             5220             10.00      0.0120     1653.00    1656.00    0          0
P5220            5220             5221             5260.00    0.0120     1656.00    1610.00    0          0
P5221            5221             5222             8521.00    0.0120     1610.00    1410.00    0          0
P5222            5222             5223             8942.00    0.0120     1410.00    1567.00    0          0
P5223            75223            5224             3110.00    0.0120     1567.00    1567.00    0          0
P5224            5224             5225             1268.00    0.0120     1567.00    1470.00    0          0
P5225            5225             5226             3050.00    0.0120     1470.00    1290.00    0          0
P5226            5226             5227             3997.00    0.0120     1290.00    1150.00    0          0
P5227            5227             5228             5996.00    0.0120     1150.00    1090.00    0          0
P5228            75228            5229             315.00     0.0120     1090.00    1050.00    0          0
P5229            5229             5230             7364.00    0.0130     1050.00    1098.00    0          0
P5230            5230             5231             2314.00    0.0130     1098.00    1040.00    0          0
P5301            5302             5210             10.00      0.0130     1650.00    1638.00    0          0
P5302            5302             5303             14000.00   0.0130     1650.00    1300.00    0          0
P5303            5303             5304             14000.00   0.0130     1300.00    1160.00    0          0
P5304            75304            5305             7.00       0.0130     1156.90    1156.90    0          0
P5305            5306             5305             3844.00    0.0130     1090.00    1156.90    0          0
P5401            5401             5402             9262.00    0.0130     1280.00    1248.00    0          0
P5402            5403             5402             1473.00    0.0120     1234.00    1248.00    0          0
P5403            5404             5403             4210.00    0.0120     1240.00    1234.00    0          0
P5404            5405             5404             842.00     0.0120     1079.00    1240.00    0          0
P5405            5406             5405             4210.00    0.0120     747.00     1079.00    0          0
P5406            5407             5406             9262.00    0.0120     1040.00    747.00     0          0
P5407            5408             5407             14735.00   0.0120     1040.00    1040.00    0          0
P5408            5409             5408             5683.00    0.0120     946.00     1040.00    0          0
P5409            5410             5409             4210.00    0.0120     1077.00    946.00     0          0
P5410            5411             5410             421.00     0.0120     957.50     1077.00    0          0
P5411            5412             5411             19787.00   0.0120     385.00     957.50     0          0
P5412            5413             5412             18524.00   0.0120     953.00     385.00     0          0
P5413            5414             5413             6600.00    0.0120     953.00     953.00     0          0
P5414            5415             5414             3368.00    0.0120     760.00     953.00     0          0
P5415            5416             5415             842.00     0.0120     967.50     760.00     0          0
P5416            5416             5417             6447.00    0.0120     967.50     523.00     0          0
P5417            75417            5418             9868.00    0.0120     523.00     700.00     0          0
P5418            5608             5418             9473.00    0.0120     580.00     700.00     0          0
P5601            5231             5602             31034.00   0.0120     1040.00    790.00     0          0
P5602            5603             5602             8416.00    0.0120     1005.00    790.00     0          0
P5603            5604             5603             4600.00    0.0120     1000.00    1005.00    0          0
P5604            5605             5604             15500.00   0.0120     800.00     1000.00    0          0
P5605            5606             5605             18500.00   0.0120     550.00     800.00     0          0
P5606            5607             5606             2500.00    0.0120     540.00     550.00     0          0
P5607            5607             75608            1450.00    0.0120     540.00     580.00     0          0
P5609            5608             5609             10.00      0.0120     580.00     580.00     0          0
P5702            5702             5703             2369.00    0.0120     1244.00    990.00     0          0
P5703            5703             5704             10787.00   0.0120     990.00     863.00     0          0
P5704            5704             5705             13421.00   0.0120     863.00     742.00     0          0
P5705            5705             5706             3474.00    0.0120     742.00     800.00     0          0
P5706            5706             5707             6316.00    0.0120     800.00     730.00     0          0
P5707            5707             5708             947.00     0.0120     730.00     730.00     0          0
P5708            5708             5709             1579.00    0.0120     730.00     750.00     0          0
P5709            5709             5710             1263.00    0.0120     750.00     800.00     0          0
P5710            5710             5711             947.00     0.0120     800.00     820.00     0          0
P5711            5711             5712             2684.00    0.0120     820.00     860.00     0          0
P5712            5712             5713             1579.00    0.0120     860.00     900.00     0          0
P5713            5713             5714             1579.00    0.0120     900.00     1160.00    0          0
P5714            5714             5715             947.00     0.0120     1160.00    900.00     0          0
P5715            5715             5716             5527.00    0.0120     900.00     805.00     0          0
P5716            5716             5717             1105.00    0.0120     805.00     847.00     0          0
P5717            5717             5718             1579.00    0.0120     847.00     890.00     0          0
P5718            5718             5719             1263.00    0.0120     890.00     910.00     0          0
P5719            5719             5720             2369.00    0.0120     910.00     1090.00    0          0
P5720            5720             5721             1263.00    0.0120     1090.00    1138.00    0          0
P5721            5721             5722             3948.00    0.0120     1138.00    980.00     0          0
P5722            5722             5723             16579.00   0.0120     980.00     1091.00    0          0
P5723            5723             5306             14842.00   0.0120     1091.00    1090.00    0          0
P5724            5306             5725             36633.00   0.0120     1090.00    1070.00    0          0
P5725            5725             5231             27631.00   0.0120     1070.00    1040.00    0          0
P5726            5231             5727             20500.00   0.0120     1040.00    1071.00    0          0
P75223           5223             75223            1000.00    0.0140     1567.00    1567.00    0          0
P75228           5228             75228            0          0          0          0          0          0
Olinda           5417             75417            2000.00    0.0140     523.00     523.00     0          0

[XSECTIONS]
;;Link           Shape        Geom1      Geom2      Geom3      Geom4      Barrels
;;-------------- ------------ ---------- ---------- ---------- ---------- ----------
P5201            CIRCULAR     11.30      0          0          0          1
P5202            CIRCULAR     11.30      0          0          0          1
P5203            CIRCULAR     10.00      0          0          0          1
P5204            CIRCULAR     10.00      0          0          0          1
P5205            CIRCULAR     10.00      0          0          0          1
P5206            CIRCULAR     10.00      0          0          0          1
P5207            CIRCULAR     10.00      0          0          0          1
P5208            CIRCULAR     10.00      0          0          0          1
P5209            CIRCULAR     10.00      0          0          0          1
P5210            CIRCULAR     8.00       0          0          0          1
P5211            CIRCULAR     8.00       0          0          0          1
P5212            CIRCULAR     8.00       0          0          0          1
P5213            CIRCULAR     8.00       0          0          0          1
P5214            CIRCULAR     8.00       0          0          0          1
P5215            CIRCULAR     10.00      0          0          0          1
P5216            CIRCULAR     10.00      0          0          0          1
P5217            CIRCULAR     10.00      0          0          0          1
P5218            CIRCULAR     10.00      0          0          0          1
P5219            CIRCULAR     10.00      0          0          0          1
P5220            CIRCULAR     8.00       0          0          0          1
P5221            CIRCULAR     8.00       0          0          0          1
P5222            CIRCULAR     8.00       0          0          0          1
P5223            CIRCULAR     8.00       0          0          0          1
P5224            CIRCULAR     8.00       0          0          0          1
P5225            CIRCULAR     8.00       0          0          0          1
P5226            CIRCULAR     8.00       0          0          0          1
P5227            CIRCULAR     8.00       0          0          0          1
P5228            CIRCULAR     15.50      0          0          0          1
P5229            CIRCULAR     12.50      0          0          0          1
P5230            CIRCULAR     12.50      0          0          0          1
P5301            CIRCULAR     12.00      0          0          0          1
P5302            CIRCULAR     12.00      0          0          0          1
P5303            CIRCULAR     12.00      0          0          0          1
P5304            CIRCULAR     12.00      0          0          0          1
P5305            CIRCULAR     12.00      0          0          0          1
P5401            CIRCULAR     10.10      0          0          0          1
P5402            CIRCULAR     9.00       0          0          0          1
P5403            CIRCULAR     9.00       0          0          0          1
P5404            CIRCULAR     9.00       0          0          0          1
P5405            CIRCULAR     9.00       0          0          0          1
P5406            CIRCULAR     9.00       0          0          0          1
P5407            CIRCULAR     9.00       0          0          0          1
P5408            CIRCULAR     9.00       0          0          0          1
P5409            CIRCULAR     9.00       0          0          0          1
P5410            CIRCULAR     9.00       0          0          0          1
P5411            CIRCULAR     9.00       0          0          0          1
P5412            CIRCULAR     9.00       0          0          0          1
P5413            CIRCULAR     10.10      0          0          0          1
P5414            CIRCULAR     9.00       0          0          0          1
P5415            CIRCULAR     9.00       0          0          0          1
P5416            CIRCULAR     8.00       0          0          0          1
P5417            CIRCULAR     8.00       0          0          0          1
P5418            CIRCULAR     8.00       0          0          0          1
P5601            CIRCULAR     10.00      0          0          0          1
P5602            CIRCULAR     10.00      0          0          0          1
P5603            CIRCULAR     8.00       0          0          0          1
P5604            CIRCULAR     8.00       0          0          0          1
P5605            CIRCULAR     8.00       0          0          0          1
P5606            CIRCULAR     8.00       0          0          0          1
P5607            CIRCULAR     8.00       0          0          0          1
P5609            CIRCULAR     8.00       0          0          0          1
P5702            CIRCULAR     11.70      0          0          0          1
P5703            CIRCULAR     10.50      0          0          0          1
P5704            CIRCULAR     10.30      0          0          0          1
P5705            CIRCULAR     10.50      0          0          0          1
P5706            CIRCULAR     10.70      0          0          0          1
P5707            CIRCULAR     9.70       0          0          0          1
P5708            CIRCULAR     10.70      0          0          0          1
P5709            CIRCULAR     10.80      0          0          0          1
P5710            CIRCULAR     11.00      0          0          0          1
P5711            CIRCULAR     11.20      0          0          0          1
P5712            CIRCULAR     11.30      0          0          0          1
P5713            CIRCULAR     11.50      0          0          0          1
P5714            CIRCULAR     11.50      0          0          0          1
P5715            CIRCULAR     11.00      0          0          0          1
P5716            CIRCULAR     11.20      0          0          0          1
P5717            CIRCULAR     11.30      0          0          0          1
P5718            CIRCULAR     11.50      0          0          0          1
P5719            CIRCULAR     11.50      0          0          0          1
P5720            CIRCULAR     11.70      0          0          0          1
P5721            CIRCULAR     11.70      0          0          0          1
P5722            CIRCULAR     11.70      0          0          0          1
P5723            CIRCULAR     12.70      0          0          0          1
P5724            CIRCULAR     11.70      0          0          0          1
P5725            CIRCULAR     11.70      0          0          0          1
P5726            CIRCULAR     11.70      0          0          0          1
P75223           CIRCULAR     8.00       0          0          0          1
P75228           CIRCULAR     0          0          0          0          1
Olinda           CIRCULAR     8.00       0          0          0          1

[LOSSES]
;;Link           Inlet      Outlet     Average    Flap Gate
;;-------------- ---------- ---------- ---------- ----------
P5201            0          0          0          NO
P5202            0          0          0          NO
P5203            0          0          0          NO
P5204            0          0          0          NO
P5205            0          0          0          NO
P5206            0          0          0          NO
P5207            0          0          0          NO
P5208            0          0          0          NO
P5209            0          0          0          NO
P5210            0          0          0          NO
P5211            0          0          0          NO
P5212            0          0          0          NO
P5213            0          0          0          NO
P5214            0          0          0          NO
P5215            0          0          0          NO
P5216            0          0          0          NO
P5217            0          0          0          NO
P5218            0          0          0          NO
P5219            0          0          0          NO
P5220            0          0          0          NO
P5221            0          0          0          NO
P5222            0          0          0          NO
P5223            0          0          0          NO
P5224            0          0          0          NO
P5225            0          0          0          NO
P5226            0          0          0          NO
P5227            0          0          0          NO
P5228            0          0          0          NO
P5229            0          0          0          NO
P5230            0          0          0          NO
P5301            0          0          0          NO
P5302            0          0          0          NO
P5303            0          0          0          NO
P5304            0          0          0          NO
P5305            0          0          0          NO
P5401            0          0          0          NO
P5402            0          0          0          NO
P5403            0          0          0          NO
P5404            0          0          0          NO
P5405            0          0          0          NO
P5406            0          0          0          NO
P5407            0          0          0          NO
P5408            0          0          0          NO
P5409            0          0          0          NO
P5410            0          0          0          NO
P5411            0          0          0          NO
P5412            0          0          0          NO
P5413            0          0          0          NO
P5414            0          0          0          NO
P5415            0          0          0          NO
P5416            0          0          0          NO
P5417            0          0          0          NO
P5418            0          0          0          NO
P5601            0          0          0          NO
P5602            0          0          0          NO
P5603            0          0          0          NO
P5604            0          0          0          NO
P5605            0          0          0          NO
P5606            0          0          0          NO
P5607            0          0          0          NO
P5609            0          0          0          NO
P5702            0          0          0          NO
P5703            0          0          0          NO
P5704            0          0          0          NO
P5705            0          0          0          NO
P5706            0          0          0          NO
P5707            0          0          0          NO
P5708            0          0          0          NO
P5709            0          0          0          NO
P5710            0          0          0          NO
P5711            0          0          0          NO
P5712            0          0          0          NO
P5713            0          0          0          NO
P5714            0          0          0          NO
P5715            0          0          0          NO
P5716            0          0          0          NO
P5717            0          0          0          NO
P5718            0          0          0          NO
P5719            0          0          0          NO
P5720            0          0          0          NO
P5721            0          0          0          NO
P5722            0          0          0          NO
P5723            0          0          0          NO
P5724            0          0          0          NO
P5725            0          0          0          NO
P5726            0          0          0          NO
P75223           0          0          0          NO
P75228           0          0          0          NO
Olinda           0          0          0          NO

[INFLOWS]
;;Node           Constituent  Time Series      Type     Mfactor  Sfactor  Baseline Pattern
;;-------------- ------------ ---------------- -------- -------- -------- -------- --------
85201            FLOW         ""               FLOW     1.0      1.0      67.00
5401             FLOW         ""               FLOW     1.0      1.0      222.50
5702             FLOW         ""               FLOW     1.0      1.0      418.00

[COORDINATES]
;;Node           X-Coord            Y-Coord
;;-------------- ------------------ ------------------
85201            407.45             232.76            
5202             408.11             232.12            
5203             408.93             231.72            
5204             409.63             231.61            
5205             410.03             231.22            
5206             410.04             230.49            
5207             409.90             229.58            
5208             410.03             228.36            
5209             410.20             227.16            
5210             410.26             225.93            
5211             410.21             225.23            
5212             410.23             224.09            
5213             410.28             223.02            
5214             410.40             221.85            
5215             410.40             220.83            
5216             410.35             219.84            
5217             410.36             219.05            
5218             410.35             218.28            
5219             410.37             217.43            
5220             410.56             216.16            
5221             410.55             215.25            
5222             410.56             213.87            
5223             410.33             213.03            
75223            410.18             211.90            