;; SWMM5 .inp converted from XPSWMM .xp file
;; Generated by XPSWMM Card Reader
;; Source format: XP_CARD | Original title: Meadowland Mills Hydrologic Analyses

[TITLE]
;;Project Title/Notes
Meadowland Mills Hydrologic Analyses

[OPTIONS]
FLOW_UNITS           CFS
INFILTRATION         HORTON
FLOW_ROUTING         DYNWAVE
LINK_OFFSETS         DEPTH
MIN_SLOPE            0.0
ALLOW_PONDING        NO
SKIP_STEADY_STATE    NO
ROUTING_STEP         00:00:05
VARIABLE_STEP        0.75
INERTIAL_DAMPING     PARTIAL
NORMAL_FLOW_LIMITED  BOTH
MAX_TRIALS           50
HEAD_TOLERANCE       0.0033

[JUNCTIONS]
;;Name           Elev       MaxDepth   InitDepth  SurDepth   Aponded
;;-------------- ---------- ---------- ---------- ---------- ----------
CB               303.80     0          0          0          0
CB               303.30     0          0          0          0
MH               303.80     0          0          0          0
MH               303.80     0          0          0          0
MH               303.80     0          0          0          0
CB               302.95     0          0          0          0
CB               302.95     0          0          0          0
CB               302.79     0          0          0          0
CB               302.79     0          0          0          0
CB               302.95     0          0          0          0
CB               303.80     0          0          0          0
CB               303.40     0          0          0          0
CB               303.80     0          0          0          0
CB               303.40     0          0          0          0
CB               308.30     0          0          0          0
MH               304.30     0          0          0          0
MH               314.70     0          0          0          0
MH               315.50     0          0          0          0
MH               317.25     0          0          0          0
MH               308.50     0          0          0          0
CBH16            316.81     0          0          0          0
CBH14            315.18     0          0          0          0
SEN110           307.74     0          0          0          0
SEN177           309.26     0          0          0          0
SEN176           311.00     0          0          0          0
SEN102           312.68     0          0          0          0
SEN103           312.63     0          0          0          0
SEN108           318.52     0          0          0          0
SEN109           318.41     0          0          0          0
SEN175           318.37     0          0          0          0
SEN106           317.14     0          0          0          0
SEN100           316.19     0          0          0          0
SEN173           318.80     0          0          0          0
SEN174           311.70     0          0          0          0
SEN105           317.94     0          0          0          0
SEN104           317.07     0          0          0          0
SEN172           312.09     0          0          0          0
SEN101           312.07     0          0          0          0
SEN171           311.36     0          0          0          0
SEN170           311.28     0          0          0          0
SEN169           311.50     0          0          0          0
SEN168A          311.51     0          0          0          0
SEN167           313.38     0          0          0          0
SEN168           314.24     0          0          0          0
CB               302.95     0          0          0          0
CB               317.80     0          0          0          0
CB               317.80     0          0          0          0
MH               309.10     0          0          0          0
MH               306.10     0          0          0          0
CB               303.80     0          0          0          0
CB               303.65     0          0          0          0
CB               302.79     0          0          0          0
MH               305.50     0          0          0          0
CB               305.00     0          0          0          0
F05              306.00     0          0          0          0
F04              306.00     0          0          0          0
F03              306.00     0          0          0          0
F02              306.00     0          0          0          0
F01              307.00     0          0          0          0
MH               316.70     0          0          0          0
MH               312.00     0          0          0          0
MH               313.00     0          0          0          0
CB               303.75     0          0          0          0
CB               303.65     0          0          0          0
CB               304.15     0          0          0          0
CB               311.70     0          0          0          0
CB               311.80     0          0          0          0
CB               305.80     0          0          0          0
MH               304.55     0          0          0          0
MH               305.35     0          0          0          0
MH               305.50     0          0          0          0
WEIR             310.00     0          0          0          0
1354             309.00     0          0          0          0
1360             312.00     0          0          0          0
MH               304.75     0          0          0          0
MH04             314.00     0          0          0          0
CB               319.80     0          0          0          0
SEN156           308.01     0          0          0          0
SEN157           308.01     0          0          0          0
SEN158           309.40     0          0          0          0
SEN159           309.36     0          0          0          0
SEN160           310.48     0          0          0          0
SEN161           312.11     0          0          0          0
SEN162           313.24     0          0          0          0
SEN013           310.95     0          0          0          0
SEN014           311.25     0          0          0          0
SEN008           311.24     0          0          0          0
SEN010           310.32     0          0          0          0
SEN011           310.04     0          0          0          0
SEN012           310.92     0          0          0          0
SEN009           310.34     0          0          0          0
SEN007           310.25     0          0          0          0
SEN163           317.84     0          0          0          0
SEN164           318.24     0          0          0          0
SEN015           317.14     0          0          0          0
SEN016           316.80     0          0          0          0
SEN004B          311.66     0          0          0          0
SEN004A          310.20     0          0          0          0
SEN004           309.67     0          0          0          0
SEN005           309.67     0          0          0          0
SEN006           309.26     0          0          0          0
1428             313.50     0          0          0          0
1432             309.75     0          0          0          0
1434             309.00     0          0          0          0
1436             309.00     0          0          0          0

[STORAGE]
;;Name           Elev       MaxDepth   InitDepth  Shape      Curve/Params
;;-------------- ---------- ---------- ---------- ---------- ----------
CB               302.79     0          0          FUNCTIONAL 12.50 0          0
MH               311.50     0          0          FUNCTIONAL 81.00 0          0
MH               311.50     0          0          FUNCTIONAL 28.00 0          0
WW/PUMP          308.50     0          0          FUNCTIONAL 81.00 0          0
1346             313.50     0          0          FUNCTIONAL 48.00 0          0
1358             310.00     0          0          FUNCTIONAL 215.00 0          0

[CONDUITS]
;;Name           From             To               Length     Roughness  InOffset   OutOffset  InitFlow   MaxFlow
;;-------------- ---------------- ---------------- ---------- ---------- ---------- ---------- ---------- ----------
SPLH05           CB               CB               40.00      0.0130     300.38     300.14     0          0
SPLH06           CB               MH               13.00      0.0130     300.14     300.12     0          0
SPLM10           MH               MH               153.00     0.0130     297.21     297.06     0          0
SPLB07           CB               CB               62.00      0.0130     299.45     299.33     0          0
SPLL06           CB               MH               13.00      0.0130     299.33     299.30     0          0
SPLH09           CB               CB               40.00      0.0130     299.80     299.70     0          0
SPLH10           CB               MH               11.00      0.0130     299.70     299.66     0          0
SPLH07           ?                Node_10001001    40.00      0.0130     300.05     299.95     0          0
SPLH08           ?                Node_1001985     11.00      0.0130     299.95     299.89     0          0
SPLB06           CB               CB               62.00      0.0130     299.45     299.33     0          0
SPLL05           CB               MH               13.00      0.0130     299.33     299.30     0          0
SPLB05           CB               CB               60.00      0.0130     299.45     299.33     0          0
SPLL04           CB               MH               13.00      0.0130     299.33     299.30     0          0
SPLH12           ?                Node_10031274    11.00      0.0130     300.69     300.47     0          0
SPLM14           ?                Node_12741013    117.00     0.0130     296.72     296.60     0          0
SPLM12           MH               MH               155.00     0.0130     297.06     296.90     0          0
SPLM16           ?                Node_10131014    40.00      0.0130     296.60     296.56     0          0
1056.1           ?                Node_10151013    50.00      0.0130     311.75     310.75     0          0
SPLM17           ?                Node_10141019    180.00     0.0130     296.56     296.38     0          0
SPLH13           ?                Node_10231015    59.00      0.0130     312.60     312.00     0          0
LH14             ?                Node_10241014    6.00       0.0130     310.40     310.35     0          0
SEL110           Node_110         Node_11831184    16.00      0.0130     304.25     304.20     0          0
SEL177           Node_177         Node_11841632    130.00     0.0130     302.76     302.60     0          0
SEL176           Node_176         Node_11871184    144.00     0.0130     303.64     303.38     0          0
SEL102           Node_102         Node_11891187    126.00     0.0130     303.90     303.64     0          0
SEL103           Node_103         Node_11911187    64.00      0.0130     306.28     305.95     0          0
SEL108           Node_108         Node_11931194    110.00     0.0130     315.00     313.90     0          0
SEL109           Node_109         Node_11941196    126.00     0.0130     313.65     312.54     0          0
SEL175           Node_175         Node_11961187    176.00     0.0130     306.16     305.95     0          0
SEL106           Node_106         Node_11991196    46.00      0.0130     315.23     315.00     0          0
SEL100           Node_100         Node_12011202    114.00     0.0130     312.99     307.55     0          0
SEL173           Node_173         Node_12021204    84.00      0.0130     307.55     307.27     0          0
SEL174           Node_174         Node_12041196    214.00     0.0130     307.27     306.18     0          0
SEL105           Node_105         Node_12071204    10.00      0.0130     312.05     307.89     0          0
SEL104           Node_104         Node_12091204    16.00      0.0130     311.50     307.89     0          0
SEL172           Node_172         Node_12111202    72.00      0.0130     307.70     307.55     0          0
SEL101           Node_101         Node_12131214    74.00      0.0130     309.00     307.70     0          0
SEL170           Node_170         Node_12161214    42.00      0.0130     307.80     307.70     0          0
SEL171           Node_171         Node_12141211    46.00      0.0130     307.70     307.70     0          0
SEL169           Node_169         Node_12191216    90.00      0.0130     308.10     307.80     0          0
SEL168A          Node_168         Node_12211219    6.00       0.0130     308.10     308.10     0          0
SEL167           Node_167         Node_12231224    38.00      0.0130     309.58     309.31     0          0
SEL168           Node_168         Node_12241221    188.00     0.0130     309.31     308.10     0          0
1065             Node_1065        Node_12641004    16.00      0.0130     299.30     299.20     0          0
1072             Node_1072        Node_12701015    60.00      0.0130     312.60     312.00     0          0
1073             Node_1073        Node_12711015    30.00      0.0130     312.30     312.00     0          0
1076             Node_1076        Node_10041538    46.00      0.0130     296.90     296.85     0          0
1077             Node_1077        Node_12751274    100.00     0.0130     296.82     296.72     0          0
1080             Node_1080        Node_12781279    40.00      0.0130     299.55     299.45     0          0
1081             Node_1081        Node_12791004    8.00       0.0130     299.45     299.40     0          0
1083             Node_1083        Node_12821264    62.00      0.0130     299.75     299.60     0          0
1127             Node_1127        Node_13261504    87.00      0.0130     301.27     300.92     0          0
1154             MH               MH               164.00     0.0130     297.37     297.21     0          0
27               ?                Node_13971410    91.00      0.0130     294.48     293.57     0          0
60               Node_60          Node_14101411    92.00      0.0130     293.32     292.39     0          0
62               Node_62          Node_14111412    92.00      0.0130     292.14     291.22     0          0
64               Node_64          Node_14121413    90.00      0.0130     291.22     290.32     0          0
69               Node_69          Node_14131571    151.00     0.0130     290.32     288.81     0          0
103              Node_103         Node_14141456    24.00      0.0130     288.84     288.60     0          0
110              Node_110         Node_14531274    96.00      0.0130     301.65     300.80     0          0
1254             Node_1254        Node_14171453    25.00      0.0130     302.00     301.75     0          0
1257             Node_1257        Node_14561416    40.00      0.0130     288.60     288.20     0          0
1260             Node_1260        Node_14591458    30.00      0.0130     299.30     299.24     0          0
1261             Node_1261        Node_14581502    15.00      0.0130     299.24     299.20     0          0
1266             Node_1266        Node_15041291    68.00      0.0130     300.42     300.15     0          0
1275             ?                MH               51.00      0.0130     301.73     301.53     0          0
1276             Node_1276        Node_14741326    65.00      0.0130     301.53     301.27     0          0
1295             Node_1295        Node_14941275    53.00      0.0130     301.10     300.57     0          0
1301             Node_1301        Node_14161500    10.00      0.0130     288.10     288.00     0          0
1303             Node_1303        Node_1502984     65.00      0.0130     298.70     298.37     0          0
1305             Node_1305        Node_14641504    15.00      0.0130     300.74     300.67     0          0
1339             Node_1339        Node_15381275    34.00      0.0130     296.85     296.82     0          0
1355             Node_1355        Node_15461554    405.00     0.0130     301.50     300.00     0          0
1359             Node_1359        Node_15601558    21.00      0.0130     296.00     295.80     0          0
1370             Node_1370        Node_12911502    89.00      0.0130     299.15     298.70     0          0
1372             Node_1372        Node_15711456    21.00      0.0130     288.81     288.60     0          0
1374             Node_1374        Node_10191573    161.00     0.0130     296.38     296.22     0          0
1376             Node_1376        Node_15731542    197.00     0.0130     296.22     296.00     0          0
1378             Node_1378        Node_15771459    81.00      0.0130     301.73     299.30     0          0
SEL156           Node_156         Node_15791580    10.00      0.0130     304.75     304.65     0          0
SEL158           Node_158         Node_15811582    10.00      0.0130     304.51     304.45     0          0
SEL159           Node_159         Node_15821583    166.00     0.0130     304.45     303.50     0          0
SEL160           Node_160         Node_15831584    62.00      0.0130     303.50     303.05     0          0
SEL161           Node_161         Node_15841585    138.00     0.0130     303.05     300.85     0          0
SEL013           ?                Node_15861587    26.00      0.0130     306.00     305.50     0          0
SEL014           ?                Node_15871585    38.00      0.0130     305.50     300.85     0          0
SEL008           ?                Node_15881589    16.00      0.0130     305.74     305.70     0          0
SEL010           ?                Node_15891590    56.00      0.0130     305.70     305.18     0          0
SEL011           ?                Node_15901591    8.00       0.0130     305.18     305.10     0          0
SEL012           ?                Node_15911584    116.00     0.0130     305.10     303.05     0          0
SEL009           ?                Node_15921589    36.00      0.0130     306.00     305.70     0          0
SEL007           ?                Node_15931591    20.00      0.0130     307.60     305.10     0          0
SEL162           Node_162         Node_15851594    58.00      0.0130     300.85     300.65     0          0
SEL157           Node_157         Node_15801581    22.00      0.0130     304.75     304.51     0          0
SEL163           Node_163         Node_15941595    102.00     0.0130     300.65     300.45     0          0
SEL015           ?                Node_15961595    48.00      0.0130     313.40     312.56     0          0
SEL016           ?                Node_15971595    16.00      0.0130     312.79     312.56     0          0
SEL164           Node_164         Node_15951291    100.00     0.0130     300.45     300.25     0          0
SEL004B          ?                Node_15991600    54.00      0.0130     307.71     307.21     0          0
SEL004A          ?                Node_16001601    46.00      0.0130     307.21     306.86     0          0
SEL004           ?                Node_16011602    30.00      0.0130     305.96     305.77     0          0
SEL005           ?                Node_16021603    36.00      0.0130     305.77     305.65     0          0
SEL006           ?                Node_16031595    182.00     0.0130     302.95     302.56     0          0
1433             Node_1433        Node_15421632    88.00      0.0130     295.90     295.81     0          0
1435             Node_1435        Node_16321636    332.00     0.0130     295.81     295.48     0          0
1437             Node_1437        Node_16361634    50.00      0.0130     295.48     295.43     0          0

[ORIFICES]
;;Name           From             To               Type       Offset     Qcoeff     Gated    CloseTime
;;-------------- ---------------- ---------------- ---------- ---------- ---------- -------- ----------
1631.1           Node_1431        Node_16281546    SIDE       308.00     0.650      NO       0

[WEIRS]
;;Name           From             To               Type       CrestHt    Qcoeff     Gated    EndCon   EndCoeff   Surcharge
;;-------------- ---------------- ---------------- ---------- ---------- ---------- -------- -------- ---------- ----------
1543.1           ?                Node_15421560    TRANSVERSE 300.00     1.840      NO       0        0          YES

[PUMPS]
;;Name           From             To               PumpCurve  Status   Startup    Shutoff
;;-------------- ---------------- ---------------- ---------- -------- ---------- ----------
1451.1           Node_114         Node_15001417    PC_1451.1  ON       286.50     281.50    
1547.1           ?                Node_15581628    PC_1547.1  ON       294.00     290.50    

[CURVES]
;;Name           Type       X-Value    Y-Value
;;-------------- ---------- ---------- ----------
PC_1451.1        Pump3      0          0
;
PC_1547.1        Pump3      0          0
;

[XSECTIONS]
;;Link           Shape        Geom1      Geom2      Geom3      Geom4      Barrels
;;-------------- ------------ ---------- ---------- ---------- ---------- ----------
SPLH05           RECT_CLOSED  1.17       1.50       0          0          1
SPLH06           RECT_CLOSED  1.17       1.50       0          0          1
SPLM10           RECT_CLOSED  4.00       5.13       0          0          1
SPLB07           CIRCULAR     1.50       0          0          0          1
SPLL06           CIRCULAR     1.50       0          0          0          1
SPLH09           CIRCULAR     1.50       0          0          0          1
SPLH10           CIRCULAR     1.50       0          0          0          1
SPLH07           CIRCULAR     1.50       0          0          0          1
SPLH08           CIRCULAR     1.50       0          0          0          1
SPLB06           CIRCULAR     1.50       0          0          0          1
SPLL05           CIRCULAR     1.50       0          0          0          1
SPLB05           CIRCULAR     1.50       2.08       0          0          1
SPLL04           CIRCULAR     1.50       4.63       0          0          1
SPLH12           CIRCULAR     1.25       0          0          0          1
SPLM14           CIRCULAR     5.00       0          0          0          1
SPLM12           RECT_CLOSED  4.00       5.13       0          0          1
SPLM16           CIRCULAR     5.00       0          0          0          1
1056.1           CIRCULAR     1.50       0          0          0          1
SPLM17           CIRCULAR     5.00       0          0          0          1
SPLH13           CIRCULAR     1.25       0          0          0          1
LH14             CIRCULAR     1.25       0          0          0          1
SEL110           CIRCULAR     1.00       0          0          0          1
SEL177           CIRCULAR     3.00       0          0          0          1
SEL176           CIRCULAR     2.50       0          0          0          1
SEL102           CIRCULAR     2.00       0          0          0          1
SEL103           CIRCULAR     1.00       0          0          0          1
SEL108           CIRCULAR     1.00       0          0          0          1
SEL109           CIRCULAR     1.25       0          0          0          1
SEL175           CIRCULAR     1.50       0          0          0          1
SEL106           CIRCULAR     1.00       0          0          0          1
SEL100           CIRCULAR     1.50       0          0          0          1
SEL173           CIRCULAR     1.50       0          0          0          1
SEL174           CIRCULAR     1.50       0          0          0          1
SEL105           CIRCULAR     1.00       0          0          0          1
SEL104           CIRCULAR     1.00       0          0          0          1
SEL172           CIRCULAR     1.50       0          0          0          1
SEL101           CIRCULAR     1.00       0          0          0          1
SEL170           CIRCULAR     1.50       0          0          0          1
SEL171           CIRCULAR     1.50       0          0          0          1
SEL169           CIRCULAR     1.00       0          0          0          1
SEL168A          CIRCULAR     1.00       0          0          0          1
SEL167           CIRCULAR     1.00       0          0          0          1
SEL168           CIRCULAR     1.00       0          0          0          1
1065             CIRCULAR     1.50       0          0          0          1
1072             CIRCULAR     1.25       0          0          0          1
1073             CIRCULAR     1.25       0          0          0          1
1076             CIRCULAR     5.00       0          0          0          1
1077             CIRCULAR     5.00       0          0          0          1
1080             CIRCULAR     1.50       0          0          0          1
1081             CIRCULAR     1.50       0          0          0          1
1083             RECT_CLOSED  1.17       1.50       0          0          1
1127             CIRCULAR     1.50       0          0          0          1
1154             RECT_CLOSED  4.00       5.13       0          0          1
27               CIRCULAR     1.00       0          0          0          1
60               CIRCULAR     1.25       0          0          0          1
62               CIRCULAR     1.50       0          0          0          1
64               CIRCULAR     1.50       0          0          0          1
69               CIRCULAR     1.50       0          0          0          1
103              CIRCULAR     1.50       0          0          0          1
110              CIRCULAR     3.00       0          0          0          1
1254             CIRCULAR     3.00       0          0          0          1
1257             CIRCULAR     1.50       0          0          0          1
1260             CIRCULAR     1.50       1.50       0          0          1
1261             CIRCULAR     1.50       1.50       0          0          1
1266             CIRCULAR     2.00       2.08       0          0          1
1275             CIRCULAR     1.50       0          0          0          1
1276             CIRCULAR     1.50       0          0          0          1
1295             CIRCULAR     1.25       1.50       0          0          1
1301             CIRCULAR     1.50       0          0          0          1
1303             CIRCULAR     3.00       1.50       0          0          1
1305             CIRCULAR     1.25       1.50       0          0          1
1339             CIRCULAR     5.00       0          0          0          1
1355             CIRCULAR     5.00       0          0          0          1
1359             RECT_CLOSED  4.00       6.00       0          0          1
1370             CIRCULAR     3.00       2.08       0          0          1
1372             CIRCULAR     1.50       0          0          0          1
1374             CIRCULAR     5.00       0          0          0          1
1376             CIRCULAR     5.00       0          0          0          1
1378             CIRCULAR     1.50       0          0          0          1
SEL156           CIRCULAR     1.00       0          0          0          1
SEL158           CIRCULAR     1.00       0          0          0          1
SEL159           CIRCULAR     1.25       0          0          0          1
SEL160           CIRCULAR     1.25       0          0          0          1
SEL161           CIRCULAR     1.25       0          0          0          1
SEL013           CIRCULAR     1.00       0          0          0          1
SEL014           CIRCULAR     1.00       0          0          0          1
SEL008           CIRCULAR     1.00       0          0          0          1
SEL010           CIRCULAR     1.00       0          0          0          1
SEL011           CIRCULAR     1.00       0          0          0          1
SEL012           CIRCULAR     1.00       0          0          0          1
SEL009           CIRCULAR     1.00       0          0          0          1
SEL007           CIRCULAR     1.00       0          0          0          1
SEL162           CIRCULAR     1.25       0          0          0          1
SEL157           CIRCULAR     1.00       0          0          0          1
SEL163           CIRCULAR     1.25       0          0          0          1
SEL015           CIRCULAR     1.00       0          0          0          1
SEL016           CIRCULAR     1.00       0          0          0          1
SEL164           CIRCULAR     1.75       0          0          0          1
SEL004B          CIRCULAR     1.00       0          0          0          1
SEL004A          CIRCULAR     1.00       0          0          0          1
SEL004           CIRCULAR     1.00       0          0          0          1
SEL005           CIRCULAR     1.00       0          0          0          1
SEL006           CIRCULAR     1.00       0          0          0          1
1433             CIRCULAR     5.00       0          0          0          1
1435             CIRCULAR     5.00       0          0          0          1
1437             CIRCULAR     5.00       0          0          0          1
1631.1           RECT_CLOSED  3.66       0          0          0          
1543.1           RECT_OPEN    0          15.50      0          0          

[LOSSES]
;;Link           Inlet      Outlet     Average    Flap Gate
;;-------------- ---------- ---------- ---------- ----------
SPLH05           0          0          0          NO
SPLH06           0          0          0          NO
SPLM10           0          0          0          NO
SPLB07           0          0          0          NO
SPLL06           0          0          0          NO
SPLH09           0          0          0          NO
SPLH10           0          0          0          NO
SPLH07           0          0          0          NO
SPLH08           0          0          0          NO
SPLB06           0          0          0          NO