;; SWMM5 .inp converted from XPSWMM .xp file
;; Generated by XPSWMM Card Reader
;; Source format: XP_CARD | Original title: (none)

[TITLE]
;;Project Title/Notes
Converted from XPSWMM .xp file

[OPTIONS]
FLOW_UNITS           CMS
INFILTRATION         HORTON
FLOW_ROUTING         DYNWAVE
LINK_OFFSETS         DEPTH
MIN_SLOPE            0.0
ALLOW_PONDING        NO
SKIP_STEADY_STATE    NO
ROUTING_STEP         00:00:30
VARIABLE_STEP        0.75
INERTIAL_DAMPING     PARTIAL
NORMAL_FLOW_LIMITED  BOTH
MAX_TRIALS           50

[JUNCTIONS]
;;Name           Elev       MaxDepth   InitDepth  SurDepth   Aponded
;;-------------- ---------- ---------- ---------- ---------- ----------
bv1              151.00     0          0          0          0
4                151.00     0          0          0          0
6                151.00     0          0          0          0
8                152.00     0          0          0          0
10               152.00     0          0          0          0
bv2              151.50     0          0          0          0
16               153.00     0          0          0          0
19               153.00     0          0          0          0
23               154.00     0          0          0          0
28               156.10     0          0          0          0
29               156.00     0          0          0          0
33               155.90     0          0          0          0
35               156.00     0          0          0          0
37               155.60     0          0          0          0
38               156.00     0          0          0          0
40               155.80     0          0          0          0
42               156.00     0          0          0          0
45               155.90     0          0          0          0
49               152.00     0          0          0          0
53               152.00     0          0          0          0
64               152.70     0          0          0          0
66               153.00     0          0          0          0
72               154.00     0          0          0          0
73               153.70     0          0          0          0
79               153.30     0          0          0          0
82               153.40     0          0          0          0
85               153.00     0          0          0          0
90               156.00     0          0          0          0
exutoire         150.00     0          0          0          0

[STORAGE]
;;Name           Elev       MaxDepth   InitDepth  Shape      Curve/Params
;;-------------- ---------- ---------- ---------- ---------- ----------
22               153.60     0          0          FUNCTIONAL 500.00 0          0
59               153.00     0          0          FUNCTIONAL 200.00 0          0

[CONDUITS]
;;Name           From             To               Length     Roughness  InOffset   OutOffset  InitFlow   MaxFlow
;;-------------- ---------------- ---------------- ---------- ---------- ---------- ---------- ---------- ----------
5                bv1              4                50.00      0.0140     148.60     148.40     0          0
7                4                6                40.00      0.0140     148.40     148.20     0          0
14               bv2              4                65.00      0.0140     148.60     148.40     0          0
17               16               10               30.00      0.0140     149.52     149.56     0          0
21               19               16               40.00      0.0140     151.12     151.00     0          0
24               22               23               25.00      0.0140     151.60     151.50     0          0
27               23               19               165.00     0.0140     151.50     151.00     0          0
30               28               29               45.00      0.0140     150.04     149.95     0          0
32               29               33               100.00     0.0140     149.95     149.85     0          0
36               35               29               50.00      0.0140     150.05     149.95     0          0
39               37               38               40.00      0.0140     150.91     150.84     0          0
41               38               40               50.00      0.0140     150.84     150.59     0          0
43               40               42               30.00      0.0140     150.59     150.53     0          0
44               42               33               135.00     0.0140     150.53     149.85     0          0
47               45               33               75.00      0.0140     155.07     155.00     0          0
50               33               49               30.00      0.0140     149.85     149.70     0          0
51               49               10               50.00      0.0140     149.71     149.56     0          0
52               10               8                160.00     0.0130     149.56     148.60     0          0
55               53               8                145.00     0.0140     149.32     148.60     0          0
63               59               64               90.00      0.0140     150.68     150.50     0          0
67               64               66               140.00     0.0140     150.56     150.00     0          0
68               66               8                130.00     0.0140     149.78     149.00     0          0
74               72               73               120.00     0.0140     151.79     151.07     0          0
78               73               79               60.00      0.0140     151.07     150.65     0          0
81               79               66               290.00     0.0140     150.65     149.78     0          0
84               82               85               90.00      0.0140     151.82     151.10     0          0
88               85               79               50.00      0.0140     151.10     150.65     0          0
92               90               40               80.00      0.0140     150.75     150.59     0          0
98               8                6                30.00      0.0140     148.60     148.50     0          0
100              6                exutoire         30.00      0.0140     148.20     148.00     0          0

[XSECTIONS]
;;Link           Shape        Geom1      Geom2      Geom3      Geom4      Barrels
;;-------------- ------------ ---------- ---------- ---------- ---------- ----------
5                CIRCULAR     0.20       0          0          0          1
7                CIRCULAR     0.20       0          0          0          1
14               CIRCULAR     0.15       0          0          0          1
17               CIRCULAR     0.30       0          0          0          1
21               CIRCULAR     0.30       0          0          0          1
24               CIRCULAR     0.20       0          0          0          1
27               CIRCULAR     0.30       0          0          0          1
30               CIRCULAR     0.30       0          0          0          1
32               CIRCULAR     0.30       0          0          0          1
36               CIRCULAR     0.20       0          0          0          1
39               CIRCULAR     0.30       0          0          0          1
41               CIRCULAR     0.35       0          0          0          1
43               CIRCULAR     0.30       0          0          0          1
44               CIRCULAR     0.30       0          0          0          1
47               CIRCULAR     0.20       0          0          0          1
50               CIRCULAR     0.60       0          0          0          1
51               CIRCULAR     0.60       0          0          0          1
52               CIRCULAR     0.60       0          0          0          1
55               CIRCULAR     0.40       0          0          0          1
63               CIRCULAR     0.20       0          0          0          1
67               CIRCULAR     0.40       0          0          0          1
68               CIRCULAR     1.00       0          0          0          1
74               CIRCULAR     0.40       0          0          0          1
78               CIRCULAR     0.30       0          0          0          1
81               CIRCULAR     0.40       0          0          0          1
84               CIRCULAR     0.15       0          0          0          1
88               CIRCULAR     0.15       0          0          0          1
92               CIRCULAR     0.30       0          0          0          1
98               CIRCULAR     0.80       0          0          0          1
100              CIRCULAR     0.80       0          0          0          1

[LOSSES]
;;Link           Inlet      Outlet     Average    Flap Gate
;;-------------- ---------- ---------- ---------- ----------
5                0          0          0          NO
7                0          0          0          NO
14               0          0          0          NO
17               0          0          0          NO
21               0          0          0          NO
24               0          0          0          NO
27               0          0          0          NO
30               0          0          0          NO
32               0          0          0          NO
36               0          0          0          NO
39               0          0          0          NO
41               0          0          0          NO
43               0          0          0          NO
44               0          0          0          NO
47               0          0          0          NO
50               0          0          0          NO
51               0          0          0          NO
52               0          0          0          NO
55               0          0          0          NO
63               0          0          0          NO
67               0          0          0          NO
68               0          0          0          NO
74               0          0          0          NO
78               0          0          0          NO
81               0          0          0          NO
84               0          0          0          NO
88               0          0          0          NO
92               0          0          0          NO
98               0          0          0          NO
100              0          0          0          NO

[COORDINATES]
;;Node           X-Coord            Y-Coord
;;-------------- ------------------ ------------------
bv1              6.98               81.00             
4                17.33              63.03             
6                27.67              50.70             
8                31.32              53.29             
10               39.57              99.09             
bv2              26.68              81.82             
16               32.48              102.61            
19               33.90              121.40            
22               37.02              179.77            
23               29.89              175.66            
28               41.55              174.84            
29               46.37              158.63            
33               59.40              128.45            
35               62.37              164.39            
37               119.98             168.58            
38               108.55             174.79            
40               95.93              168.67            
42               91.29              161.38            
45               74.95              110.70            
49               48.88              119.98            
53               61.21              85.15             
59               110.52             89.99             
64               117.15             61.30             
66               73.76              44.40             
72               86.84              70.91             
73               101.63             112.66            
79               102.27             125.34            
82               118.90             162.96            
85               108.52             138.59            
90               111.60             166.03            
exutoire         23.24              44.17             

[MAP]
DIMENSIONS 6.98 44.17 119.98 179.77
Units      None

[REPORT]
INPUT            YES
SUBCATCHMENTS    ALL
NODES            ALL
LINKS            ALL



