;; SWMM5 .inp converted from XPSWMM .xp file
;; Generated by XPSWMM Card Reader
;; Source format: XP_CARD | Original title: Phase2

[TITLE]
;;Project Title/Notes
Phase2

[OPTIONS]
FLOW_UNITS           CMS
INFILTRATION         HORTON
FLOW_ROUTING         DYNWAVE
LINK_OFFSETS         DEPTH
MIN_SLOPE            0.0
ALLOW_PONDING        NO
SKIP_STEADY_STATE    NO
ROUTING_STEP         00:00:10
VARIABLE_STEP        0.75
INERTIAL_DAMPING     PARTIAL
NORMAL_FLOW_LIMITED  BOTH
MAX_TRIALS           50

[JUNCTIONS]
;;Name           Elev       MaxDepth   InitDepth  SurDepth   Aponded
;;-------------- ---------- ---------- ---------- ---------- ----------
03010030         184.47     0          0          0          0
03010020         184.46     0          0          0          0
03010010         184.38     0          0          0          0
03030100         183.48     0          0          0          0
03030090         182.81     0          0          0          0
03030080         182.30     0          0          0          0
03030050         182.00     0          0          0          0
03030030         181.28     0          0          0          0
03030020         181.28     0          0          0          0
03030010         180.80     0          0          0          0
02020050         180.82     0          0          0          0
02020040         181.11     0          0          0          0
02020030         181.14     0          0          0          0
02020020         181.11     0          0          0          0
02020010         181.32     0          0          0          0
02010030         181.06     0          0          0          0
02010020         181.63     0          0          0          0
02010010         181.18     0          0          0          0
03020030         183.32     0          0          0          0
03020020         183.71     0          0          0          0
04020100         185.91     0          0          0          0
04020090         185.51     0          0          0          0
04020080         184.63     0          0          0          0
04020070         183.73     0          0          0          0
04020060         183.66     0          0          0          0
04020050         183.41     0          0          0          0
04020045         183.33     0          0          0          0
04020030         182.69     0          0          0          0
04020020         182.61     0          0          0          0
04050040         181.47     0          0          0          0
04050030         181.91     0          0          0          0
04050020         182.69     0          0          0          0
04050010         182.09     0          0          0          0
04050005         182.07     0          0          0          0
02010180         181.72     0          0          0          0
02010170         181.24     0          0          0          0
02010160         179.81     0          0          0          0
02010150         180.38     0          0          0          0
02010140         181.28     0          0          0          0
02010130         181.22     0          0          0          0
02010120         180.79     0          0          0          0
04020110         182.98     0          0          0          0
04030010         182.93     0          0          0          0
06010120         181.30     0          0          0          0
06010110         181.10     0          0          0          0
06010100         180.79     0          0          0          0
06010090         180.24     0          0          0          0
06010080         179.71     0          0          0          0
06010070         180.09     0          0          0          0
06010060         179.61     0          0          0          0
06010050         180.13     0          0          0          0
06010040         180.63     0          0          0          0
06010030         180.42     0          0          0          0
06010020         180.38     0          0          0          0
06010005         179.69     0          0          0          0
06030030         179.18     0          0          0          0
06030020         181.00     0          0          0          0
06030010         181.00     0          0          0          0
02020045         181.30     0          0          0          0
02020035         180.80     0          0          0          0
02010005         175.23     0          0          0          0
02010003         175.23     0          0          0          0
HighLiftWW       175.23     0          0          0          0
OV20             175.23     0          0          0          0
150030           175.42     0          0          0          0
150110           175.13     0          0          0          0
150150           175.72     0          0          0          0
160006           173.65     0          0          0          0
160020           173.15     0          0          0          0
160035           172.81     0          0          0          0
160050           173.33     0          0          0          0
160060           173.19     0          0          0          0
160080           173.50     0          0          0          0
160090           174.56     0          0          0          0
150002           175.45     0          0          0          0
150020           175.25     0          0          0          0
FrontStOut       172.50     0          0          0          0
150050           175.04     0          0          0          0
gDrainOUT        175.00     0          0          0          0
FrontD2          174.02     0          0          0          0
Ein              177.34     0          0          0          0
OV19             181.55     0          0          0          0

[STORAGE]
;;Name           Elev       MaxDepth   InitDepth  Shape      Curve/Params
;;-------------- ---------- ---------- ---------- ---------- ----------
03010040         184.70     0          0          FUNCTIONAL 25.00 0          0
03030040         181.50     0          0          FUNCTIONAL 25.00 0          0
03020040         183.70     0          0          FUNCTIONAL 25.00 0          0
09020110         188.31     0          0          FUNCTIONAL 25.00 0          0
06010130         181.70     0          0          FUNCTIONAL 25.00 0          0
06030040         180.90     0          0          FUNCTIONAL 25.00 0          0
HT150001         175.71     0          0          FUNCTIONAL 25.00 0          0
HT150002         175.71     0          0          FUNCTIONAL 25.00 0          0
110010           173.13     0          0          FUNCTIONAL 25.00 0          0
150005           175.46     0          0          FUNCTIONAL 25.00 0          0
150040           175.19     0          0          FUNCTIONAL 25.00 0          0
150060           175.46     0          0          FUNCTIONAL 25.00 0          0
150070           175.65     0          0          FUNCTIONAL 25.00 0          0
150080           175.62     0          0          FUNCTIONAL 25.00 0          0
150100           175.19     0          0          FUNCTIONAL 25.00 0          0
150120           175.53     0          0          FUNCTIONAL 25.00 0          0
150130           175.64     0          0          FUNCTIONAL 25.00 0          0
150140           175.51     0          0          FUNCTIONAL 25.00 0          0
160004           172.62     0          0          FUNCTIONAL 25.00 0          0
160008           172.94     0          1.34       FUNCTIONAL 25.00 0          0
160010           172.69     0          0.76       FUNCTIONAL 25.00 0          0
160015           172.31     0          0          FUNCTIONAL 25.00 0          0
160030           172.54     0.00       0          FUNCTIONAL 25.00 0          0
160032           172.20     -0.00      0          FUNCTIONAL 25.00 0          0
160040           172.57     0.00       0          FUNCTIONAL 25.00 0          0
160070           172.83     0          0          FUNCTIONAL 25.00 0          0
160110           174.40     0.00       0          FUNCTIONAL 25.00 0          0
160115           174.56     0.00       0          FUNCTIONAL 25.00 0          0
170020           176.53     -0.91      0          FUNCTIONAL 25.00 0          0
HT160016         172.91     0          0          FUNCTIONAL 25.00 0          0
150010           175.26     0          0          FUNCTIONAL 25.00 0          0
HT150008         175.22     0          0          FUNCTIONAL 25.00 0          0
HT150007         173.59     0          0          FUNCTIONAL 25.00 0          0
FrontStPS        173.13     0          0          FUNCTIONAL 7.44 0          0
LowLiftWW        173.45     0          0          FUNCTIONAL 41.20 0          0
HT160018         172.30     0          0          FUNCTIONAL 25.00 0          0
HT1050068        175.18     -3.68      0          FUNCTIONAL 25.00 0          0
HT01050042       174.80     0          0          FUNCTIONAL 25.00 0          0

[CONDUITS]
;;Name           From             To               Length     Roughness  InOffset   OutOffset  InitFlow   MaxFlow
;;-------------- ---------------- ---------------- ---------- ---------- ---------- ---------- ---------- ----------
CA00400030       03010040         03010030         38.25      0.0130     181.69     181.38     0          0
CA00300020       03010030         03010020         76.65      0.0130     181.36     181.03     0          0
CA00200010       03010020         03010010         9.59       0.0130     181.01     180.91     0          0
CA00100100       03010010         03030100         125.35     0.0130     180.95     179.99     0          0
CC01000090       03030100         03030090         303.85     0.0130     179.76     179.04     0          0
CC00900080       03030090         03030080         195.07     0.0130     179.01     178.80     0          0
CC00500040       03030050         03030040         200.00     0.0130     178.40     178.00     0          0
CC00300040       03030040         03030030         150.00     0.0130     177.20     176.80     0          0
CC00200030       03030030         03030020         150.00     0.0130     176.80     176.50     0          0
CC00100020       03030020         03030010         250.00     0.0130     176.35     175.47     0          0
BB00500010       03030010         02020050         72.00      0.0130     175.47     175.29     0          0
BB00500045       02020050         02020045         195.60     0.0130     175.29     174.80     0          0
BB00450040       02020045         02020040         150.00     0.0130     174.80     174.60     0          0
BB00400035       02020040         02020035         164.28     0.0130     174.46     174.14     0          0
BB00350030       02020035         02020030         171.75     0.0130     174.14     173.95     0          0
BB00300020       02020030         02020020         166.79     0.0130     173.95     173.84     0          0
BB00200010       02020020         02020010         177.46     0.0130     173.78     173.45     0          0
BB00100030       02020010         02010030         80.81      0.0130     173.45     173.34     0          0
BA00300020       02010030         02010020         214.19     0.0130     173.29     172.80     0          0
BA00200010       02010020         02010010         238.20     0.0130     172.80     172.63     0          0
BA00100005       02010010         02010005         34.60      0.0130     172.63     172.47     0          0
BA00050003       02010005         02010003         34.47      0.0130     172.47     172.42     0          0
BA0003HLPS       02010003         HighLiftWW       77.00      0.0130     172.42     172.18     0          0
CB00400030       03020040         03020030         114.74     0.0130     180.79     180.28     0          0
CB00300020       03020030         03020020         131.19     0.0130     180.27     180.26     0          0
IB01100100       09020110         04020100         141.79     0.0130     183.76     182.60     0          0
DB01000090       04020100         04020090         101.99     0.0130     182.54     181.78     0          0
DB00900080       04020090         04020080         102.35     0.0130     181.76     181.01     0          0
DB00800070       04020080         04020070         121.53     0.0130     181.00     180.39     0          0
DB00700060       04020070         04020060         18.84      0.0130     180.41     179.26     0          0
DB00600050       04020060         04020050         82.51      0.0130     179.23     178.74     0          0
DB00500045       04020050         04020045         19.59      0.0130     178.75     178.67     0          0
DB00450030       04020045         04020030         103.83     0.0130     178.67     178.29     0          0
DB00300020       04020030         04020020         106.01     0.0130     178.29     177.81     0          0
DB00200040       04020020         04050040         253.25     0.0130     177.81     177.01     0          0
DE00400030       04050040         04050030         127.34     0.0130     177.03     176.64     0          0
DE00300020       04050030         04050020         62.44      0.0130     176.64     176.43     0          0
DE00200010       04050020         04050010         26.56      0.0130     176.44     175.53     0          0
DE00100005       04050010         04050005         2.33       0.0130     175.50     175.32     0          0
DE00050180       04050005         02010180         12.55      0.0130     175.12     175.27     0          0
BA01800170       02010180         02010170         111.65     0.0130     175.24     174.95     0          0
BA01700160       02010170         02010160         111.81     0.0130     174.90     174.80     0          0
BA01600150       02010160         02010150         110.54     0.0130     174.70     174.53     0          0
BA01500140       02010150         02010140         98.34      0.0130     174.53     174.38     0          0
BA01400130       02010140         02010130         98.69      0.0130     174.32     174.22     0          0
BA01300120       02010130         02010120         97.44      0.0130     174.12     174.09     0          0
BA01200010       02010120         02010010         98.54      0.0130     174.03     173.19     0          0
DB01100060       04020110         04020060         113.95     0.0130     178.82     178.81     0          0
DC00100020       04030010         04020020         91.61      0.0130     178.06     177.88     0          0
FA01300120       06010130         06010120         109.26     0.0130     175.23     174.97     0          0
FA01200110       06010120         06010110         40.20      0.0130     174.94     174.93     0          0
FA01100100       06010110         06010100         64.00      0.0130     174.94     174.84     0          0
FA01000090       06010100         06010090         107.52     0.0130     174.84     174.72     0          0
FA00900080       06010090         06010080         109.01     0.0130     174.64     174.49     0          0
FA00800070       06010080         06010070         112.38     0.0130     174.39     173.95     0          0
FA00700060       06010070         06010060         115.81     0.0130     173.85     173.65     0          0
FA00600050       06010060         06010050         90.80      0.0130     173.65     173.44     0          0
FA00500040       06010050         06010040         143.87     0.0130     173.44     173.11     0          0
FA00400030       06010040         06010030         70.20      0.0130     173.04     172.89     0          0
FA00300020       06010030         06010020         111.72     0.0130     172.72     172.67     0          0
FA00200005       06010020         06010005         166.09     0.0130     172.63     172.45     0          0
FA0005HLPS       06010005         HighLiftWW       250.00     0.0130     172.45     171.50     0          0
FC00400030       06030040         06030030         125.09     0.0130     177.43     176.06     0          0
FC00300020       06030030         06030020         122.77     0.0130     176.04     175.69     0          0
FC00200010       06030020         06030010         120.43     0.0130     175.67     175.46     0          0
FC00100040       06030010         06010040         120.55     0.0130     175.37     173.34     0          0
toOV20           02010003         OV20             17.00      0.0130     173.86     171.00     0          0
CB00200100       03020020         03030100         250.00     0.0130     180.25     179.80     0          0
HT00010002       HT150001         HT150002         100.00     0.0109     170.65     170.55     0          0
1500020120       HT150002         150120           100.00     0.0057     170.55     170.31     0          0
501100100        150110           150100           100.00     0.0109     170.16     170.13     0          0
1501200110       150120           150110           100.00     0.0097     170.18     170.16     0          0
1501300001       150130           HT150001         100.00     0.0056     170.82     170.65     0          0
1501300120       150130           150120           74.79      0.0130     170.34     170.20     0          0
1501400130       150140           150130           100.00     0.0103     170.41     170.39     0          0
600060004        160006           160004           100.00     0.0130     165.60     165.04     0          0
600080006        160008           160006           125.63     0.0130     166.30     165.60     0          0
SIPHON           160010           160008           225.13     0.0130     165.54     164.96     0          0
600150010        160015           160010           97.29      0.0130     167.31     166.74     0          0
600200015        160020           160015           70.30      0.0130     167.45     167.31     0          0
600320030        160032           160030           100.00     0.0047     167.51     167.47     0          0
600400035        160040           160035           63.89      0.0130     167.97     167.88     0          0
600500040        160050           160040           91.14      0.0130     168.31     167.99     0          0
600600050        160060           160050           92.87      0.0130     168.48     168.33     0          0
600700060        160070           160060           92.27      0.0130     168.71     168.50     0          0
1600800070       160080           160070           81.93      0.0130     168.83     168.71     0          0
1600900080       160090           160080           64.40      0.0130     168.95     168.85     0          0
1601150110       160115           160110           40.52      0.0130     171.13     170.93     0          0
500050002        150005           150002           145.42     0.0130     168.55     168.33     0          0
5-2_6-40         150002           160040           152.03     0.0130     168.31     168.18     0          0
500400030        150040           150030           162.78     0.0130     169.38     169.25     0          0
501500140        150150           150140           88.13      0.0130     170.54     170.41     0          0
600350032        160035           160032           93.94      0.0130     167.81     167.56     0          0
600160015        HT160016         160015           51.00      0.0030     167.53     167.46     0          0
501000080        150100           150080           115.12     0.0130     170.00     169.82     0          0
500800070        150080           150070           66.63      0.0130     169.82     169.73     0          0
500700060        150070           150060           122.73     0.0130     169.70     169.62     0          0
500300020        150030           150020           164.80     0.0130     169.24     169.00     0          0
500200010        150020           150010           151.80     0.0130     169.00     168.77     0          0
500100005        150010           150005           108.30     0.0130     168.72     168.55     0          0
SA00100008       150010           HT150008         51.00      0.0074     169.19     168.98     0          0
HT00080007       HT150008         HT150007         93.19      0.0130     168.98     168.80     0          0
HT00070005       HT150007         150005           51.00      0.0043     168.80     168.75     0          0
Dummy            110010           FrontStPS        70.00      0.0140     170.12     169.87     0          0
FrontStOF        FrontStPS        FrontStOut       100.00     0.0140     171.24     170.89     0          0
601100090        160110           160090           20.31      0.0130     169.05     168.97     0          0
toLLPS           160004           LowLiftWW        97.00      0.0130     165.04     164.52     0          0
500600050        150060           150050           100.00     0.0041     169.62     169.59     0          0
500500040        150050           150040           71.38      0.0130     169.50     169.42     0          0
600300020        160030           160020           60.30      0.0130     167.47     167.45     0          0
600300018        160030           HT160018         51.00      0.0034     169.18     167.86     0          0
HT00180016       HT160018         HT160016         106.78     0.0130     167.86     167.53     0          0
SA60HT68         150060           HT1050068        51.00      0.0054     170.34     170.09     0          0
HT00680042       HT1050068        HT01050042       70.70      0.0130     170.09     169.90     0          0
HT42SA40         HT01050042       150040           51.00      0.0067     169.90     169.42     0          0
gDrain           HT1050068        gDrainOUT        400.00     0.0130     131.00     130.97     0          0
17-20_LLPS       170020           160004           450.00     0.0130     171.16     168.57     0          0
FrontD1          FrontD2          160110           100.00     0.0150     172.31     171.81     0          0
EinTo7-20        Ein              170020           450.00     0.0130     171.97     171.16     0          0
toOV19           04050010         OV19             50.00      0.0130     177.69     176.12     0          0
CC00800050       03030080         03030050         155.00     0.0130     178.75     178.40     0          0

[PUMPS]
;;Name           From             To               PumpCurve  Status   Startup    Shutoff
;;-------------- ---------------- ---------------- ---------- -------- ---------- ----------
FrontPump        FrontStPS        FrontD2          PC_FrontPump ON       0          0         
LowLiftPS        LowLiftWW        03030040         PC_LowLiftPS ON       0          0         

[CURVES]
;;Name           Type       X-Value    Y-Value
;;-------------- ---------- ---------- ----------
PC_FrontPump     Pump2      0          0
;
PC_LowLiftPS     Pump2      0          0
;

[XSECTIONS]
;;Link           Shape        Geom1      Geom2      Geom3      Geom4      Barrels
;;-------------- ------------ ---------- ---------- ---------- ---------- ----------
CA00400030       CIRCULAR     0.90       0          0          0          1
CA00300020       CIRCULAR     0.90       0          0          0          1
CA00200010       CIRCULAR     0.90       0          0          0          1
CA00100100       CIRCULAR     0.90       0          0          0          1
CC01000090       CIRCULAR     1.20       0          0          0          1
CC00900080       CIRCULAR     1.20       0          0          0          1
CC00500040       CIRCULAR     1.20       0          0          0          1
CC00300040       CIRCULAR     1.20       0          0          0          1
CC00200030       CIRCULAR     1.20       0          0          0          1
CC00100020       CIRCULAR     1.20       0          0          0          1
BB00500010       CIRCULAR     1.20       0          0          0          1
BB00500045       CIRCULAR     1.20       0          0          0          1
BB00450040       CIRCULAR     1.20       0          0          0          1
BB00400035       CIRCULAR     1.20       0          0          0          1
BB00350030       CIRCULAR     1.20       0          0          0          1
BB00300020       CIRCULAR     1.20       0          0          0          1
BB00200010       CIRCULAR     1.20       0          0          0          1
BB00100030       CIRCULAR     1.35       0          0          0          1
BA00300020       CIRCULAR     1.35       0          0          0          1
BA00200010       CIRCULAR     1.35       0          0          0          1
BA00100005       CIRCULAR     1.35       0          0          0          1
BA00050003       CIRCULAR     1.35       0          0          0          1
BA0003HLPS       CIRCULAR     1.35       0          0          0          1
CB00400030       CIRCULAR     0.60       0          0          0          1
CB00300020       CIRCULAR     0.60       0          0          0          1
IB01100100       CIRCULAR     0.60       0          0          0          1
DB01000090       CIRCULAR     0.60       0          0          0          1
DB00900080       CIRCULAR     0.60       0          0          0          1
DB00800070       CIRCULAR     0.68       0          0          0          1
DB00700060       CIRCULAR     1.20       0          0          0          1
DB00600050       CIRCULAR     0.68       0          0          0          1
DB00500045       CIRCULAR     0.68       0          0          0          1
DB00450030       CIRCULAR     0.68       0          0          0          1
DB00300020       CIRCULAR     0.68       0          0          0          1
DB00200040       CIRCULAR     1.05       0          0          0          1
DE00400030       CIRCULAR     1.05       0          0          0          1
DE00300020       CIRCULAR     1.05       0          0          0          1
DE00200010       CIRCULAR     1.05       0          0          0          1
DE00100005       CIRCULAR     1.05       0          0          0          1
DE00050180       CIRCULAR     0.68       0          0          0          1
BA01800170       CIRCULAR     0.68       0          0          0          1
BA01700160       CIRCULAR     0.68       0          0          0          1
BA01600150       CIRCULAR     0.68       0          0          0          1
BA01500140       CIRCULAR     0.68       0          0          0          1
BA01400130       CIRCULAR     0.68       0          0          0          1
BA01300120       CIRCULAR     0.68       0          0          0          1
BA01200010       CIRCULAR     0.68       0          0          0          1
DB01100060       CIRCULAR     0.38       0          0          0          1
DC00100020       CIRCULAR     0.68       0          0          0          1
FA01300120       CIRCULAR     0.75       0          0          0          1
FA01200110       CIRCULAR     0.75       0          0          0          1
FA01100100       CIRCULAR     0.75       0          0          0          1
FA01000090       CIRCULAR     0.75       0          0          0          1
FA00900080       CIRCULAR     0.75       0          0          0          1
FA00800070       CIRCULAR     0.75       0          0          0          1
FA00700060       CIRCULAR     0.75       0          0          0          1
FA00600050       CIRCULAR     0.75       0          0          0          1
FA00500040       CIRCULAR     0.75       0          0          0          1
FA00400030       CIRCULAR     0.82       0          0          0          1
FA00300020       CIRCULAR     0.82       0          0          0          1
FA00200005       CIRCULAR     1.35       0          0          0          1
FA0005HLPS       CIRCULAR     1.35       0          0          0          1
FC00400030       CIRCULAR     0.45       0          0          0          1
FC00300020       CIRCULAR     0.45       0          0          0          1
FC00200010       CIRCULAR     0.45       0          0          0          1
FC00100040       CIRCULAR     0.45       0          0          0          1
toOV20           CIRCULAR     0.61       0          0          0          1
CB00200100       CIRCULAR     0.60       0          0          0          1
HT00010002       CIRCULAR     1.35       0          0          0          1
1500020120       CIRCULAR     0.38       0          0          0          1
501100100        CIRCULAR     0.38       0          0          0          1
1501200110       CIRCULAR     0.38       0          0          0          1
1501300001       CIRCULAR     0.45       0          0          0          1
1501300120       CIRCULAR     0.38       0          0          0          1
1501400130       CIRCULAR     0.38       0          0          0          1
600060004        CIRCULAR     0.90       0          0          0          1
600080006        CIRCULAR     0.90       0.90       0          0          1
SIPHON           CIRCULAR     0.90       0          0          0          1
600150010        CIRCULAR     0.53       0          0          0          1
600200015        CIRCULAR     0.53       0          0          0          1
600320030        CIRCULAR     0.53       0.53       0          0          1
600400035        CIRCULAR     0.45       0          0          0          1
600500040        CIRCULAR     0.45       0          0          0          1
600600050        CIRCULAR     0.45       0          0          0          1
600700060        CIRCULAR     0.45       0          0          0          1
1600800070       CIRCULAR     0.45       0          0          0          1
1600900080       CIRCULAR     0.45       0          0          0          1
1601150110       CIRCULAR     0.38       0          0          0          1
500050002        CIRCULAR     0.38       0          0          0          1
5-2_6-40         CIRCULAR     0.38       0          0          0          1
500400030        CIRCULAR     0.38       0          0          0          1