;; SWMM5 .inp converted from XPSWMM .xp file
;; Generated by XPSWMM Card Reader
;; Source format: XP_CARD | Original title: Base Flow

[TITLE]
;;Project Title/Notes
Base Flow

[OPTIONS]
FLOW_UNITS           CFS
INFILTRATION         HORTON
FLOW_ROUTING         DYNWAVE
LINK_OFFSETS         DEPTH
MIN_SLOPE            0.0
ALLOW_PONDING        NO
SKIP_STEADY_STATE    NO
ROUTING_STEP         00:00:10
VARIABLE_STEP        0.75
INERTIAL_DAMPING     PARTIAL
NORMAL_FLOW_LIMITED  BOTH
MAX_TRIALS           50
HEAD_TOLERANCE       0.0033

[JUNCTIONS]
;;Name           Elev       MaxDepth   InitDepth  SurDepth   Aponded
;;-------------- ---------- ---------- ---------- ---------- ----------
7A               105.00     0          0          0          0
50401            106.00     0          0          0          0
51101            100.00     0          0          0          0
5a               100.00     0          0          0          0
50902            102.00     0          0          0          0
50903            98.30      0          0          0          0
51501            108.50     0          0          0          0
52701            99.30      0          0          0          0
53002            99.30      0          0          0          0
53003            98.90      0          0          0          0
891              99.10      0          0          0          0
53101            101.00     0          0          0          0
53301            101.00     0          0          0          0
54504            99.80      0          0          0          0
54701            101.90     0          0          0          0
54601            102.10     0          0          0          0
55302            106.00     0          0          0          0
55003            102.50     0          0          0          0
55901            104.00     0          0          0          0
56006            100.00     0          0          0          0
56008            95.00      0          0          0          0
56009            95.00      0          0          0          0
56010            88.70      0          0          0          0
56011            85.00      0          0          0          0
56007            96.00      0          0          0          0
56101            71.00      0          0          0          0
56303            92.80      0          0          0          0
56701            77.80      0          0          0          0
57001            55.50      0          0          0          0
57101            53.00      0          0          0          0
57901            103.00     0          0          0          0
6017             106.00     0          0          0          0
1097             106.00     0          0          0          0
1099             106.00     0          0          0          0
1113             62.00      0          0          0          0
WWTP             59.70      0          0          0          0
1117             53.00      0          0          0          0
1118             56.30      0          0          0          0
9006             57.10      0          0          0          0
9007             57.10      0          0          0          0
1138             64.00      0          0          0          0
1140             91.80      0          0          0          0
1141             79.90      0          0          0          0
1143             64.00      0          0          0          0
1146             98.00      0          0          0          0
1148             96.00      0          0          0          0
1150             90.90      0          0          0          0
56904            82.00      0          0          0          0
56905            80.00      0          0          0          0
56906            80.00      0          0          0          0
56907            78.00      0          0          0          0
56908            70.00      0          0          0          0
58901            150.00     0          0          0          0
59001            150.00     0          0          0          0
59101            150.00     0          0          0          0
55801            105.00     0          0          0          0
57002            55.50      0          0          0          0
1184             65.00      0          0          0          0
1185             67.00      0          0          0          0
1186             67.00      0          0          0          0
1194             105.00     0          0          0          0
1197             105.00     0          0          0          0
1206             100.00     0          0          0          0
9041             63.00      0          0          0          0

[STORAGE]
;;Name           Elev       MaxDepth   InitDepth  Shape      Curve/Params
;;-------------- ---------- ---------- ---------- ---------- ----------
1090             126.70     0          0          FUNCTIONAL 0 0          0
1085             115.00     0          0          FUNCTIONAL 0 0          0
1080             115.20     0          0          FUNCTIONAL 0 0          0
1075             114.90     0          0          FUNCTIONAL 0 0          0
1070             115.50     0          0          FUNCTIONAL 0 0          0
1135             126.30     0          0          FUNCTIONAL 0 0          0
50501            117.70     0          0          FUNCTIONAL 0 0          0
1100             106.00     0          0          FUNCTIONAL 0 0          0
1065             109.70     0          0          FUNCTIONAL 0 0          0
1055             104.90     0          0          FUNCTIONAL 0 0          0
1050             102.50     0          0          FUNCTIONAL 0 0          0
1045             104.30     0          0          FUNCTIONAL 0 0          0
1040             104.10     0          0          FUNCTIONAL 0 0          0
1035             105.90     0          0          FUNCTIONAL 0 0          0
1030             105.60     0          0          FUNCTIONAL 0 0          0
1025             104.00     0          0          FUNCTIONAL 0 0          0
1020             100.00     0          0          FUNCTIONAL 0 0          0
1015             100.00     0          0          FUNCTIONAL 0 0          0
1010             100.00     0          0          FUNCTIONAL 0 0          0
2280             110.00     0          0          FUNCTIONAL 0 0          0
2275             109.90     0          0          FUNCTIONAL 0 0          0
2265             114.00     0          0          FUNCTIONAL 0 0          0
2260             119.00     0          0          FUNCTIONAL 0 0          0
2250             120.00     0          0          FUNCTIONAL 0 0          0
2240             118.50     0          0          FUNCTIONAL 0 0          0
2235             118.50     0          0          FUNCTIONAL 0 0          0
2225             115.60     0          0          FUNCTIONAL 0 0          0
2220             106.50     0          0          FUNCTIONAL 0 0          0
2215             106.50     0          0          FUNCTIONAL 0 0          0
2205             107.00     0          0          FUNCTIONAL 0 0          0
2200             108.70     0          0          FUNCTIONAL 0 0          0
2195             108.30     0          0          FUNCTIONAL 0 0          0
2190             107.90     0          0          FUNCTIONAL 0 0          0
2185             101.50     0          0          FUNCTIONAL 0 0          0
2180             107.00     0          0          FUNCTIONAL 0 0          0
2175             108.50     0          0          FUNCTIONAL 0 0          0
2170             107.00     0          0          FUNCTIONAL 0 0          0
2165             111.90     0          0          FUNCTIONAL 0 0          0
2150             110.50     0          0          FUNCTIONAL 0 0          0
2145             110.50     0          0          FUNCTIONAL 0 0          0
2140             110.50     0          0          FUNCTIONAL 0 0          0
2125             109.90     0          0          FUNCTIONAL 0 0          0
2120             109.90     0          0          FUNCTIONAL 0 0          0
2115             111.60     0          0          FUNCTIONAL 0 0          0
2110             115.60     0          0          FUNCTIONAL 0 0          0
2105             112.00     0          0          FUNCTIONAL 0 0          0
2095             112.00     0          0          FUNCTIONAL 0 0          0
2090             111.80     0          0          FUNCTIONAL 0 0          0
2085             106.00     0          0          FUNCTIONAL 0 0          0
2070             110.00     0          0          FUNCTIONAL 0 0          0
2055             109.00     0          0          FUNCTIONAL 0 0          0
2050             109.00     0          0          FUNCTIONAL 0 0          0
2045             108.50     0          0          FUNCTIONAL 0 0          0
2040             107.90     0          0          FUNCTIONAL 0 0          0
2035             108.50     0          0          FUNCTIONAL 0 0          0
2020             105.00     0          0          FUNCTIONAL 0 0          0
2015             104.00     0          0          FUNCTIONAL 0 0          0
3145             100.00     0          0          FUNCTIONAL 0 0          0
3135             95.00      0          0          FUNCTIONAL 0 0          0
3080             95.80      0          0          FUNCTIONAL 0 0          0
3045             95.60      0          0          FUNCTIONAL 0 0          0
3020             86.20      0          0          FUNCTIONAL 0 0          0
3015             85.60      0          0          FUNCTIONAL 0 0          0
4035             99.70      0          0          FUNCTIONAL 0 0          0
4030             101.30     0          0          FUNCTIONAL 0 0          0
4025             99.10      0          0          FUNCTIONAL 0 0          0
4020             100.00     0          0          FUNCTIONAL 0 0          0
4015             99.70      0          0          FUNCTIONAL 0 0          0
4010             100.00     0          0          FUNCTIONAL 0 0          0
5130             99.10      0          0          FUNCTIONAL 0 0          0
5120             101.00     0          0          FUNCTIONAL 0 0          0
5115             101.00     0          0          FUNCTIONAL 0 0          0
5110             110.10     0          0          FUNCTIONAL 0 0          0
5095             102.50     0          0          FUNCTIONAL 0 0          0
5080             102.50     0          0          FUNCTIONAL 0 0          0
5075             102.10     0          0          FUNCTIONAL 0 0          0
5070             100.30     0          0          FUNCTIONAL 0 0          0
5065             100.00     0          0          FUNCTIONAL 0 0          0
5060             100.00     0          0          FUNCTIONAL 0 0          0
5055             100.00     0          0          FUNCTIONAL 0 0          0
5045             97.70      0          0          FUNCTIONAL 0 0          0
5035             100.00     0          0          FUNCTIONAL 0 0          0
5030             100.00     0          0          FUNCTIONAL 0 0          0
5025             100.00     0          0          FUNCTIONAL 0 0          0
5015             99.40      0          0          FUNCTIONAL 0 0          0
5010             101.00     0          0          FUNCTIONAL 0 0          0
5005             107.00     0          0          FUNCTIONAL 0 0          0
6155             107.90     0          0          FUNCTIONAL 0 0          0
6150             108.20     0          0          FUNCTIONAL 0 0          0
6145             107.50     0          0          FUNCTIONAL 0 0          0
6140             107.00     0          0          FUNCTIONAL 0 0          0
6130             105.90     0          0          FUNCTIONAL 0 0          0
6125             107.50     0          0          FUNCTIONAL 0 0          0
6120             109.50     0          0          FUNCTIONAL 0 0          0
6115             105.70     0          0          FUNCTIONAL 0 0          0
6110             105.10     0          0          FUNCTIONAL 0 0          0
6105             108.30     0          0          FUNCTIONAL 0 0          0
6095             106.50     0          0          FUNCTIONAL 0 0          0
6090             101.60     0          0          FUNCTIONAL 0 0          0
54401            104.00     0          0          FUNCTIONAL 0 0          0
6080             104.00     0          0          FUNCTIONAL 0 0          0
6075             103.10     0          0          FUNCTIONAL 0 0          0
6070             106.90     0          0          FUNCTIONAL 0 0          0
6055             99.30      0          0          FUNCTIONAL 0 0          0
6050             99.50      0          0          FUNCTIONAL 0 0          0
6045             106.00     0          0          FUNCTIONAL 0 0          0
6040             108.00     0          0          FUNCTIONAL 0 0          0
6035             106.50     0          0          FUNCTIONAL 0 0          0
6030             106.30     0          0          FUNCTIONAL 0 0          0
6025             106.00     0          0          FUNCTIONAL 0 0          0
6020             107.50     0          0          FUNCTIONAL 0 0          0
6015             106.00     0          0          FUNCTIONAL 0 0          0
6010             106.00     0          0          FUNCTIONAL 0 0          0
6005             103.10     0          0          FUNCTIONAL 0 0          0
18020            100.00     0          0          FUNCTIONAL 0 0          0
8040             99.70      0          0          FUNCTIONAL 0 0          0
8035             101.50     0          0          FUNCTIONAL 0 0          0
8030             101.50     0          0          FUNCTIONAL 0 0          0
8025             101.90     0          0          FUNCTIONAL 0 0          0
8015             98.10      0          0          FUNCTIONAL 0 0          0
8010             96.00      0          0          FUNCTIONAL 0 0          0
8005             93.50      0          0          FUNCTIONAL 0 0          0
54203            103.00     0          0          FUNCTIONAL 30.00 0          0
7135             99.40      0          0          FUNCTIONAL 0 0          0
7130             101.90     0          0          FUNCTIONAL 0 0          0
7125             102.50     0          0          FUNCTIONAL 0 0          0
7120             103.70     0          0          FUNCTIONAL 0 0          0
7115             103.40     0          0          FUNCTIONAL 0 0          0
7110             103.50     0          0          FUNCTIONAL 0 0          0
7105             103.50     0          0          FUNCTIONAL 0 0          0
7100             103.50     0          0          FUNCTIONAL 0 0          0
7095             103.50     0          0          FUNCTIONAL 0 0          0
7090             92.00      0          0          FUNCTIONAL 0 0          0
7085             88.50      0          0          FUNCTIONAL 0 0          0
7080             88.50      0          0          FUNCTIONAL 0 0          0
7075             88.50      0          0          FUNCTIONAL 0 0          0
7070             87.50      0          0          FUNCTIONAL 0 0          0
7060             102.50     0          0          FUNCTIONAL 0 0          0
7055             107.00     0          0          FUNCTIONAL 0 0          0
7050             104.90     0          0          FUNCTIONAL 0 0          0
7045             104.00     0          0          FUNCTIONAL 0 0          0
7040             103.70     0          0          FUNCTIONAL 0 0          0
7035             103.00     0          0          FUNCTIONAL 0 0          0
7030             89.10      0          0          FUNCTIONAL 0 0          0
57401            88.70      0          0          FUNCTIONAL 0 0          0
57201            87.90      0          0          FUNCTIONAL 0 0          0
7015             88.50      0          0          FUNCTIONAL 0 0          0
14030            107.90     0          0          FUNCTIONAL 0 0          0
14025            106.10     0          0          FUNCTIONAL 0 0          0
14020            105.70     0          0          FUNCTIONAL 0 0          0
14015            105.70     0          0          FUNCTIONAL 0 0          0
14010            100.60     0          0          FUNCTIONAL 0 0          0
14005            99.60      0          0          FUNCTIONAL 0 0          0
13130            105.00     0          0          FUNCTIONAL 0 0          0
53701            107.00     0          0          FUNCTIONAL 0 0          0
13120            105.10     0          0          FUNCTIONAL 0 0          0
55701            105.00     0          0          FUNCTIONAL 0 0          0
13105            103.70     0          0          FUNCTIONAL 0 0          0
13100            104.00     0          0          FUNCTIONAL 0 0          0
13095            98.00      0          0          FUNCTIONAL 0 0          0
13090            97.60      0          0          FUNCTIONAL 0 0          0
13085            96.00      0          0          FUNCTIONAL 0 0          0
13080            96.00      0          0          FUNCTIONAL 0 0          0
13075            105.70     0          0          FUNCTIONAL 0 0          0
13070            103.70     0          0          FUNCTIONAL 0 0          0
13065            104.30     0          0          FUNCTIONAL 0 0          0
13060            106.00     0          0          FUNCTIONAL 0 0          0
13055            106.00     0          0          FUNCTIONAL 0 0          0
13050            104.00     0          0          FUNCTIONAL 0 0          0
13045            106.00     0          0          FUNCTIONAL 0 0          0
13040            106.00     0          0          FUNCTIONAL 0 0          0
13035            106.00     0          0          FUNCTIONAL 0 0          0
13025            99.90      0          0          FUNCTIONAL 0 0          0
13020            99.90      0          0          FUNCTIONAL 0 0          0
13015            99.90      0          0          FUNCTIONAL 0 0          0
13010            93.00      0          0          FUNCTIONAL 0 0          0
13005            92.80      0          0          FUNCTIONAL 0 0          0
12020            64.10      0          0          FUNCTIONAL 0 0          0
12015            66.40      0          0          FUNCTIONAL 0 0          0
12010            72.00      0          0          FUNCTIONAL 0 0          0
10090            95.00      0          0          FUNCTIONAL 0 0          0
10085            86.70      0          0          FUNCTIONAL 0 0          0
10080            66.30      0          0          FUNCTIONAL 0 0          0
10070            65.00      0          0          FUNCTIONAL 0 0          0
10065            64.20      0          0          FUNCTIONAL 0 0          0
10060            76.90      0          0          FUNCTIONAL 0 0          0
10055            70.00      0          0          FUNCTIONAL 0 0          0
10050            70.00      0          0          FUNCTIONAL 0 0          0
10045            68.00      0          0          FUNCTIONAL 0 0          0
10040            74.10      0          0          FUNCTIONAL 0 0          0
10035            71.30      0          0          FUNCTIONAL 0 0          0
10030            67.10      0          0          FUNCTIONAL 0 0          0
10025            64.60      0          0          FUNCTIONAL 0 0          0
10010            64.20      0          0          FUNCTIONAL 0 0          0
10005            61.00      0          0          FUNCTIONAL 0 0          0
9225             86.00      0          0          FUNCTIONAL 0 0          0
9220             87.90      0          0          FUNCTIONAL 0 0          0
9215             87.90      0          0          FUNCTIONAL 0 0          0
9210             88.50      0          0          FUNCTIONAL 0 0          0
9205             78.80      0          0          FUNCTIONAL 0 0          0
9195             58.90      0          0          FUNCTIONAL 0 0          0
9190             57.90      0          0          FUNCTIONAL 0 0          0
9185             59.10      0          0          FUNCTIONAL 0 0          0
9180             59.90      0          0          FUNCTIONAL 0 0          0
9175             59.90      0          0          FUNCTIONAL 0 0          0
9170             60.20      0          0          FUNCTIONAL 0 0          0
9165             59.70      0          0          FUNCTIONAL 0 0          0
9160             66.80      0          0          FUNCTIONAL 0 0          0
9150             92.00      0          0          FUNCTIONAL 0 0          0
9145             87.40      0          0          FUNCTIONAL 0 0          0
9140             87.70      0          0          FUNCTIONAL 0 0          0
9135             84.20      0          0          FUNCTIONAL 0 0          0
9130             81.50      0          0          FUNCTIONAL 0 0          0
9125             66.30      0          0          FUNCTIONAL 0 0          0
9120             66.00      0          0          FUNCTIONAL 0 0          0
9115             57.90      0          0          FUNCTIONAL 0 0          0
56601            57.50      0          0          FUNCTIONAL 0 0          0
9105             57.20      0          0          FUNCTIONAL 0 0          0
9100             57.20      0          0          FUNCTIONAL 0 0          0
9090             56.20      0          0          FUNCTIONAL 0 0          0
9080             86.30      0          0          FUNCTIONAL 0 0          0
9075             87.70      0          0          FUNCTIONAL 0 0          0
9060             91.80      0          0          FUNCTIONAL 0 0          0
9055             87.90      0          0          FUNCTIONAL 0 0          0
9050             79.90      0          0          FUNCTIONAL 0 0          0
9045             64.00      0          0          FUNCTIONAL 0 0          0
9035             55.30      0          0          FUNCTIONAL 0 0          0
9025             57.20      0          0          FUNCTIONAL 0 0          0
9020             57.60      0          0          FUNCTIONAL 0 0          0
9010             56.90      0          0          FUNCTIONAL 0 0          0
16025            80.00      0          0          FUNCTIONAL 0 0          0
16020            80.00      0          0          FUNCTIONAL 0 0          0
16010            57.30      0          0          FUNCTIONAL 0 0          0
16005            55.30      0          0          FUNCTIONAL 0 0          0
1                72.00      0          0          FUNCTIONAL 0 0          0
53201            101.00     0          0          FUNCTIONAL 0 0          0
4                106.00     0          0          FUNCTIONAL 0 0          0
6                100.00     0          0          FUNCTIONAL 0 0          0
9                99.80      0          0          FUNCTIONAL 0 0          0
10               92.50      0          0          FUNCTIONAL 0 0          0
12               88.50      0          0          FUNCTIONAL 0 0          0
15               95.80      0          0          FUNCTIONAL 0 0          0
16               86.20      0          0          FUNCTIONAL 0 0          0
WWTP2            50.50      0          0          FUNCTIONAL 0 0          0
999              50.50      0          0          FUNCTIONAL 0 0          0
1005             100.00     0          0          FUNCTIONAL 0 0          0
1105             106.00     0          0          FUNCTIONAL 0 0          0
1110             106.00     0          0          FUNCTIONAL 0 0          0
1115             116.00     0          0          FUNCTIONAL 0 0          0
50601            116.00     0          0          FUNCTIONAL 0 0          0
1130             122.90     0          0          FUNCTIONAL 0 0          0
2005             100.00     0          0          FUNCTIONAL 0 0          0
2010             100.00     0          0          FUNCTIONAL 0 0          0
2025             107.50     0          0          FUNCTIONAL 0 0          0
2030             108.50     0          0          FUNCTIONAL 0 0          0
2060             110.00     0          0          FUNCTIONAL 0 0          0
2065             110.00     0          0          FUNCTIONAL 0 0          0
2080             106.00     0          0          FUNCTIONAL 0 0          0
2100             112.00     0          0          FUNCTIONAL 0 0          0
2130             110.00     0          0          FUNCTIONAL 0 0          0
2135             110.30     0          0          FUNCTIONAL 0 0          0
2155             111.90     0          0          FUNCTIONAL 0 0          0
2160             111.90     0          0          FUNCTIONAL 0 0          0
2167             110.00     0          0          FUNCTIONAL 0 0          0
2210             106.50     0          0          FUNCTIONAL 0 0          0
2230             112.00     0          0          FUNCTIONAL 0 0          0
2245             119.50     0          0          FUNCTIONAL 0 0          0
2255             119.00     0          0          FUNCTIONAL 0 0          0
51601            109.90     0          0          FUNCTIONAL 0 0          0
3005             49.30      0          0          FUNCTIONAL 0 0          0
3010             51.90      0          0          FUNCTIONAL 0 0          0
3025             86.10      0          0          FUNCTIONAL 0 0          0
3030             86.10      0          0          FUNCTIONAL 0 0          0
3035             90.00      0          0          FUNCTIONAL 0 0          0
3040             90.00      0          0          FUNCTIONAL 0 0          0
3050             96.20      0          0          FUNCTIONAL 0 0          0
3055             96.10      0          0          FUNCTIONAL 0 0          0
3060             96.10      0          0          FUNCTIONAL 0 0          0
3065             96.00      0          0          FUNCTIONAL 0 0          0
3070             96.00      0          0          FUNCTIONAL 0 0          0
3075             96.00      0          0          FUNCTIONAL 0 0          0
3090             95.00      0          0          FUNCTIONAL 0 0          0
3095             94.00      0          0          FUNCTIONAL 0 0          0
3100             96.00      0          0          FUNCTIONAL 0 0          0
3105             94.00      0          0          FUNCTIONAL 0 0          0
3110             93.00      0          0          FUNCTIONAL 0 0          0
3115             90.00      0          0          FUNCTIONAL 0 0          0
3125             90.00      0          0          FUNCTIONAL 0 0          0
3130             95.00      0          0          FUNCTIONAL 0 0          0
3140             94.00      0          0          FUNCTIONAL 0 0          0
7                101.00     0          0          FUNCTIONAL 0 0          0
5020             101.00     0          0          FUNCTIONAL 0 0          0
5040             98.50      0          0          FUNCTIONAL 0 0          0
5050             100.00     0          0          FUNCTIONAL 0 0          0
5085             102.40     0          0          FUNCTIONAL 0 0          0
5090             102.50     0          0          FUNCTIONAL 0 0          0
5125             99.00      0          0          FUNCTIONAL 0 0          0
6060             99.10      0          0          FUNCTIONAL 0 0          0
6065             98.90      0          0          FUNCTIONAL 0 0          0
6100             106.50     0          0          FUNCTIONAL 0 0          0
6135             108.70     0          0          FUNCTIONAL 0 0          0
7005             88.50      0          0          FUNCTIONAL 0 0          0
7010             88.50      0          0          FUNCTIONAL 0 0          0
7065             88.50      0          0          FUNCTIONAL 0 0          0
8020             100.00     0          0          FUNCTIONAL 0 0          0
9005             57.10      0          0          FUNCTIONAL 0 0          0
9015             57.60      0          0          FUNCTIONAL 0 0          0
9030             57.20      0          0          FUNCTIONAL 0 0          0
9040             63.00      0          0          FUNCTIONAL 0 0          0
9065             92.50      0          0          FUNCTIONAL 0 0          0
9070             92.50      0          0          FUNCTIONAL 0 0          0
9085             87.50      0          0          FUNCTIONAL 0 0          0
9095             57.20      0          0          FUNCTIONAL 0 0          0
10015            65.70      0          0          FUNCTIONAL 0 0          0
10020            67.10      0          0          FUNCTIONAL 0 0          0
10075            66.00      0          0          FUNCTIONAL 0 0          0
13030            99.90      0          0          FUNCTIONAL 0 0          0
13110            105.00     0          0          FUNCTIONAL 0 0          0
16015            59.00      0          0          FUNCTIONAL 0 0          0
17005            53.20      0          0          FUNCTIONAL 0 0          0
17010            53.20      0          0          FUNCTIONAL 0 0          0
57701            54.20      0          0          FUNCTIONAL 0 0          0
17020            54.40      0          0          FUNCTIONAL 0 0          0
17025            55.50      0          0          FUNCTIONAL 0 0          0
18010            99.50      0          0          FUNCTIONAL 0 0          0
18015            99.50      0          0          FUNCTIONAL 0 0          0
15A              95.80      0          0          FUNCTIONAL 30.00 0          0
14A              96.00      0          0          FUNCTIONAL 30.00 0          0
50203            104.00     0          0          FUNCTIONAL 30.00 0          0
50201            104.00     0          0          FUNCTIONAL 30.00 0          0