;; SWMM5 .inp converted from XPSWMM .xp file
;; Generated by XPSWMM Card Reader
;; Source format: XP_CARD | Original title: GRASS LAKE WATERSHED MANAGEMENT ORGANIZATION

[TITLE]
;;Project Title/Notes
GRASS LAKE WATERSHED MANAGEMENT ORGANIZATION

[OPTIONS]
FLOW_UNITS           CFS
INFILTRATION         HORTON
FLOW_ROUTING         DYNWAVE
LINK_OFFSETS         DEPTH
MIN_SLOPE            0.0
ALLOW_PONDING        NO
SKIP_STEADY_STATE    NO
INERTIAL_DAMPING     PARTIAL
NORMAL_FLOW_LIMITED  BOTH

[JUNCTIONS]
;;Name           Elev       MaxDepth   InitDepth  SurDepth   Aponded
;;-------------- ---------- ---------- ---------- ---------- ----------
LK               0          0          0          0          0
LO-1             0          0          0          0          0
LO-2             0          0          0          0          0
LO-3             0          0          0          0          0
LO-4             0          0          0          0          0
LO-6             0          0          0          0          0
LO-7             0          0          0          0          0
LO-8             0          0          0          0          0
LO-9             0          0          0          0          0
LO-10            0          0          0          0          0
LO-11            0          0          0          0          0
LO-12            0          0          0          0          0
1-1              0          0          0          0          0
1-2              0          0          0          0          0
1-3              0          0          0          0          0
1-4              0          0          0          0          0
2-1              0          0          0          0          0
2-2              0          0          0          0          0
2-3              0          0          0          0          0
2-4              0          0          0          0          0
2-5              0          0          0          0          0
2-6              0          0          0          0          0
2-7              0          0          0          0          0
2-8              0          0          0          0          0
2-9              0          0          0          0          0
2-10             0          0          0          0          0
4-1              0          0          0          0          0
4-2              0          0          0          0          0
4-3              0          0          0          0          0
4-4              0          0          0          0          0
6-1              0          0          0          0          0
6-2              0          0          0          0          0
6-3              0          0          0          0          0
6-4              0          0          0          0          0
6-5              0          0          0          0          0
6-6              0          0          0          0          0
6-7              0          0          0          0          0
6-8              0          0          0          0          0
6-9              0          0          0          0          0
2-11             0          0          0          0          0
2-12             0          0          0          0          0
2-13             0          0          0          0          0
2-14             0          0          0          0          0
2-15             0          0          0          0          0
2-16             0          0          0          0          0
2-17             0          0          0          0          0
11-1             0          0          0          0          0
11-2             0          0          0          0          0
11-3             0          0          0          0          0
11-4             0          0          0          0          0
11-5             0          0          0          0          0
11-6             0          0          0          0          0
11-7             0          0          0          0          0
11-8             0          0          0          0          0
11-9             0          0          0          0          0
11-10            0          0          0          0          0
12-1             0          0          0          0          0
12-2             0          0          0          0          0
12-3             0          0          0          0          0
12-4             0          0          0          0          0
12-5             0          0          0          0          0
12-6             0          0          0          0          0
10-1             0          0          0          0          0
WILLOW           0          0          0          0          0
WP-2             0          0          0          0          0
WP-3             0          0          0          0          0
WP-4             0          0          0          0          0
WP-5             0          0          0          0          0
WP-6             0          0          0          0          0
BENNETT          0          0          0          0          0
BL-1             0          0          0          0          0
WP-1             0          0          0          0          0
BL1-1            0          0          0          0          0
BL-2             0          0          0          0          0
BL-3             0          0          0          0          0
BL-4             0          0          0          0          0
BL-5             0          0          0          0          0
PUMP             0          0          0          0          0
BL4-1            0          0          0          0          0
BL4-2            0          0          0          0          0
BL-6A            0          0          0          0          0
6A-5             0          0          0          0          0
6A-4             0          0          0          0          0
6A-3             0          0          0          0          0
6A-2             0          0          0          0          0
6A-1             0          0          0          0          0
10-2             0          0          0          0          0
10-3             0          0          0          0          0
10-4             0          0          0          0          0
10-5             0          0          0          0          0
5-1              0          0          0          0          0
LK               0          0          0          0          0
GRASS            0          0          0          0          0

[CONDUITS]
;;Name           From             To               Length     Roughness  InOffset   OutOffset  InitFlow   MaxFlow
;;-------------- ---------------- ---------------- ---------- ---------- ---------- ---------- ---------- ----------
LO-1/1-1         LO-1             1-1              38.00      0.0120     952.00     951.84     0          0
1-1/1-2          1-1              1-2              237.00     0.0120     951.45     950.50     0          0
1-2/1-3          1-2              1-3              413.00     0.0120     950.22     948.77     0          0
1-3/1-4          1-3              1-4              678.00     0.0120     948.14     947.17     0          0
LO-2/2-1         LO-2             2-1              119.00     0.0120     949.52     949.25     0          0
2-1/2-2          2-1              2-2              317.00     0.0120     948.98     948.25     0          0
2-2/2-3          2-2              2-3              180.00     0.0120     948.25     947.82     0          0
2-3/1-4          2-3              1-4              30.00      0.0120     947.82     947.65     0          0
1-4/2-4          1-4              2-4              229.00     0.0120     947.25     946.70     0          0
2-4/2-5          2-4              2-5              200.00     0.0120     946.70     946.21     0          0
2-5/2-6          2-5              2-6              269.00     0.0120     946.21     945.44     0          0
2-6/2-7          2-6              2-7              364.00     0.0120     944.95     943.13     0          0
2-7/2-8          2-7              2-8              264.00     0.0120     943.13     941.67     0          0
2-8/2-9          2-8              2-9              90.00      0.0120     941.67     941.00     0          0
2-9/2-10         2-9              2-10             300.00     0.0120     941.00     936.00     0          0
LO-4/4-1         LO-4             4-1              90.00      0.0120     943.58     943.04     0          0
LO-3/4-1         LO-3             4-1              432.00     0.0120     942.87     942.18     0          0
4-1/4-2          4-1              4-2              525.00     0.0120     942.18     939.84     0          0
4-2/4-3          4-2              4-3              330.00     0.0120     939.70     936.80     0          0
4-3/4-4          4-3              4-4              288.00     0.0120     936.30     935.46     0          0
4-4/2-10         4-4              2-10             590.00     0.0120     935.46     932.50     0          0
LO-6/6-1         LO-6             6-1              20.00      0.0120     923.71     923.31     0          0
6-1/6-2          6-1              6-2              295.00     0.0120     922.45     919.37     0          0
6-2/6-3          6-2              6-3              45.00      0.0120     919.37     917.55     0          0
6-3/6-4          6-3              6-4              498.00     0.0120     916.05     903.10     0          0
6-4/6-5          6-4              6-5              177.00     0.0120     902.85     899.31     0          0
6-5/6-6          6-5              6-6              133.00     0.0120     898.51     897.85     0          0
LO-7/6-5         LO-7             6-5              47.00      0.0120     899.84     899.56     0          0
6-6/6-7          6-6              6-7              304.00     0.0120     897.85     896.03     0          0
6-7/6-8          6-7              6-8              308.00     0.0120     896.03     893.85     0          0
6-8/6-9          6-8              6-9              280.00     0.0120     893.42     891.85     0          0
2-10/2-11        2-10             2-11             30.00      0.0120     933.57     933.55     0          0
2-11/2-12        2-11             2-12             325.00     0.0120     933.55     927.05     0          0
2-12/2-13        2-12             2-13             297.00     0.0120     927.05     912.28     0          0
2-13/2-14        2-13             2-14             135.00     0.0120     912.28     909.58     0          0
2-14/2-15        2-14             2-15             169.00     0.0120     908.98     902.22     0          0
2-15/2-16        2-15             2-16             75.00      0.0120     902.22     900.96     0          0
2-16/2-17        2-16             2-17             75.00      0.0120     900.96     898.50     0          0
2-17/6-9         2-17             6-9              252.00     0.0120     896.89     892.35     0          0
6-9/LO-8         6-9              LO-8             125.00     0.0120     891.35     891.00     0          0
LO-11/11-1       LO-11            11-1             69.00      0.0120     941.50     941.13     0          0
11-1/11-2        11-1             11-2             355.00     0.0120     941.13     938.68     0          0
11-2/11-3        11-2             11-3             120.00     0.0120     938.68     937.10     0          0
11-3/11-4        11-3             11-4             426.00     0.0120     936.70     933.71     0          0
11-4/11-5        11-4             11-5             156.00     0.0120     932.50     931.42     0          0
11-5/11-6        11-5             11-6             100.00     0.0120     931.30     930.41     0          0
11-6/11-7        11-6             11-7             122.00     0.0120     930.41     928.70     0          0
11-7/11-8        11-7             11-8             420.00     0.0120     928.70     923.83     0          0
11-8/11-9        11-8             11-9             215.00     0.0120     923.43     921.92     0          0
11-9/11-10       11-9             11-10            112.00     0.0120     921.42     919.66     0          0
11-10/LE         11-10            LO-12            36.00      0.0120     918.11     918.00     0          0
L0-12/12-1       LO-12            12-1             70.00      0.0120     916.50     915.94     0          0
12-1/12-2        12-1             12-2             38.00      0.0120     915.94     915.25     0          0
12-2/12-3        12-2             12-3             44.00      0.0120     915.25     914.00     0          0
12-3/12-4        12-3             12-4             28.00      0.0120     914.00     913.40     0          0
12-4/12-4        12-4             12-5             130.00     0.0120     913.40     906.50     0          0
12-5/12-6        12-5             12-6             38.00      0.0120     906.50     906.25     0          0
12-6/LO-10       12-6             LO-10            85.00      0.0120     905.70     905.02     0          0
LO-10/10-1       LO-10            10-1             80.00      0.0120     893.06     892.90     0          0
LO-8/LO-9        LO-8             LO-9             33.00      0.0120     886.97     886.96     0          0
LO-9/LO          LO-9             LK               60.00      0.0120     885.21     885.20     0          0
WP/WP-1          WILLOW           WP-1             141.00     0.0120     900.73     900.30     0          0
WP-2/WP-3        WP-2             WP-3             231.00     0.0120     898.00     897.08     0          0
WP-3/WP-4        WP-3             WP-4             708.00     0.0120     897.08     895.82     0          0
WP-4/WP-5        WP-4             WP-5             206.00     0.0120     895.82     894.81     0          0
WP-5/WP-6        WP-5             WP-6             723.00     0.0120     894.81     886.30     0          0
WP-6/BL          WP-6             BENNETT          300.00     0.0240     886.30     885.70     0          0
BL-1/WP-2        BL-1             BL1-1            410.00     0.0120     900.46     899.40     0          0
WP-1/WP-2        WP-1             WP-2             260.00     0.0120     899.04     898.00     0          0
BL1-1/WP-2       BL1-1            WP-2             80.00      0.0120     899.40     898.60     0          0
BL-3/WP-4        BL-3             WP-4             90.00      0.0120     897.25     897.00     0          0
BL-2/WP-4        BL-2             WP-4             535.00     0.0120     901.00     898.33     0          0
BL-PUMP          BENNETT          PUMP             125.00     0.0240     882.25     881.00     0          0
DITCH1           BL-4             BL4-1            100.00     0.0300     888.00     887.90     0          0
DITCH2           BL4-2            BENNETT          100.00     0.0300     887.90     887.80     0          0
PUMP/LO-9        PUMP             LO-9             240.00     0.0150     898.00     887.00     0          0
6A5/WP3          6A-5             WP-3             191.00     0.0120     903.13     901.00     0          0
6A-4/6A-5        6A-4             6A-5             239.00     0.0120     905.84     903.13     0          0
6A-3/6A-4        6A-3             6A-4             217.00     0.0120     908.24     905.84     0          0
6A-2/6A-3        6A-2             6A-3             708.00     0.0120     911.74     908.36     0          0
6A-2/6A-2        6A-1             6A-2             23.00      0.0120     911.92     911.74     0          0
BL6A/6A-1        BL-6A            6A-1             40.00      0.0120     915.00     914.68     0          0
10-1/10-2        10-1             10-2             537.00     0.0120     892.90     891.51     0          0
LO-2/L0-3        10-2             10-3             116.00     0.0120     891.51     891.11     0          0
LO-3/LO-4        10-3             10-4             706.00     0.0120     891.11     889.31     0          0
LO-4/LO-5        10-4             10-5             694.00     0.0120     889.31     887.35     0          0
LO-5/LO          10-5             LK               208.00     0.0120     887.35     886.85     0          0
BL-5/5-1         BL-5             5-1              80.00      0.0120     888.00     886.30     0          0
5-1/BL           5-1              BENNETT          80.00      0.0150     886.30     885.10     0          0
LO/LW            LK               LK               92.00      0.0120     885.27     885.20     0          0
LW/GL            LK               GRASS            224.00     0.0140     883.90     883.23     0          0

[WEIRS]
;;Name           From             To               Type       CrestHt    Qcoeff     Gated    EndCon   EndCoeff   Surcharge
;;-------------- ---------------- ---------------- ---------- ---------- ---------- -------- -------- ---------- ----------
WEIR             BL4-1            BL4-2            TRANSVERSE 0          1.840      NO       0        0          YES

[XSECTIONS]
;;Link           Shape        Geom1      Geom2      Geom3      Geom4      Barrels
;;-------------- ------------ ---------- ---------- ---------- ---------- ----------
LO-1/1-1         CIRCULAR     1.40       0          0          0          1
1-1/1-2          CIRCULAR     2.25       0          0          0          1
1-2/1-3          CIRCULAR     2.50       0          0          0          1
1-3/1-4          CIRCULAR     3.50       0          0          0          1
LO-2/2-1         CIRCULAR     2.00       0          0          0          1
2-1/2-2          CIRCULAR     2.00       0          0          0          1
2-2/2-3          CIRCULAR     2.00       0          0          0          1
2-3/1-4          CIRCULAR     2.00       0          0          0          1
1-4/2-4          HORSESHOE    2.67       0          0          0          1
2-4/2-5          HORSESHOE    2.67       0          0          0          1
2-5/2-6          HORSESHOE    2.67       0          0          0          1
2-6/2-7          CIRCULAR     3.00       0.00       0          0          1
2-7/2-8          CIRCULAR     3.00       0          0          0          1
2-8/2-9          CIRCULAR     2.50       0          0          0          1
2-9/2-10         CIRCULAR     2.50       0          0          0          1
LO-4/4-1         CIRCULAR     1.00       0          0          0          1
LO-3/4-1         CIRCULAR     2.25       0          0          0          1
4-1/4-2          CIRCULAR     2.25       0          0          0          1
4-2/4-3          CIRCULAR     2.25       0          0          0          1
4-3/4-4          CIRCULAR     2.75       0          0          0          1
4-4/2-10         CIRCULAR     3.00       0          0          0          1
LO-6/6-1         CIRCULAR     1.50       0          0          0          1
6-1/6-2          CIRCULAR     1.50       0          0          0          1
6-2/6-3          CIRCULAR     1.50       0          0          0          1
6-3/6-4          CIRCULAR     2.25       0          0          0          1
6-4/6-5          CIRCULAR     2.50       0          0          0          1
6-5/6-6          CIRCULAR     3.50       0          0          0          1
LO-7/6-5         CIRCULAR     2.00       0          0          0          1
6-6/6-7          CIRCULAR     3.50       0          0          0          1
6-7/6-8          CIRCULAR     3.50       0          0          0          1
6-8/6-9          CIRCULAR     4.00       0          0          0          1
2-10/2-11        CIRCULAR     3.00       0          0          0          1
2-11/2-12        CIRCULAR     3.00       0          0          0          1
2-12/2-13        CIRCULAR     2.50       0          0          0          1
2-13/2-14        CIRCULAR     3.00       0          0          0          1
2-14/2-15        CIRCULAR     2.75       0          0          0          1
2-15/2-16        CIRCULAR     2.75       0          0          0          1
2-16/2-17        CIRCULAR     2.75       0          0          0          1
2-17/6-9         CIRCULAR     3.50       0          0          0          1
6-9/LO-8         HORSESHOE    7.33       0          0          0          1
LO-11/11-1       CIRCULAR     1.50       0          0          0          1
11-1/11-2        CIRCULAR     1.50       0          0          0          1
11-2/11-3        CIRCULAR     1.50       0          0          0          1
11-3/11-4        CIRCULAR     2.00       0          0          0          1
11-4/11-5        CIRCULAR     3.00       0          0          0          1
11-5/11-6        CIRCULAR     3.00       0          0          0          1
11-6/11-7        CIRCULAR     3.00       0          0          0          1
11-7/11-8        CIRCULAR     3.00       0          0          0          1
11-8/11-9        CIRCULAR     3.50       0          0          0          1
11-9/11-10       CIRCULAR     3.00       0          0          0          1
11-10/LE         CIRCULAR     4.00       0          0          0          1
L0-12/12-1       CIRCULAR     1.50       0          0          0          1
12-1/12-2        CIRCULAR     1.50       0          0          0          1
12-2/12-3        CIRCULAR     1.50       0          0          0          1
12-3/12-4        CIRCULAR     1.50       0          0          0          1
12-4/12-4        CIRCULAR     1.50       0          0          0          1
12-5/12-6        CIRCULAR     1.50       0          0          0          1
12-6/LO-10       CIRCULAR     1.50       0          0          0          1
LO-10/10-1       CIRCULAR     2.00       0          0          0          1
LO-8/LO-9        CIRCULAR     2.00       0          0          0          1
LO-9/LO          CIRCULAR     4.00       0          0          0          1
WP/WP-1          HORSESHOE    5.40       0          0          0          1
WP-2/WP-3        CIRCULAR     4.00       0          0          0          1
WP-3/WP-4        CIRCULAR     5.00       0          0          0          1
WP-4/WP-5        CIRCULAR     5.00       0          0          0          1
WP-5/WP-6        CIRCULAR     4.00       0          0          0          1
WP-6/BL          CIRCULAR     5.00       0          0          0          1
BL-1/WP-2        CIRCULAR     1.00       0          0          0          1
WP-1/WP-2        CIRCULAR     4.00       0          0          0          1
BL1-1/WP-2       CIRCULAR     1.00       0          0          0          1
BL-3/WP-4        CIRCULAR     2.00       0          0          0          1
BL-2/WP-4        CIRCULAR     1.00       0          0          0          1
BL-PUMP          CIRCULAR     4.00       0          0          0          1
DITCH1           CIRCULAR     7.00       15.00      0          0          1
DITCH2           TRAPEZOIDAL  7.00       15.00      0          0          1
PUMP/LO-9        CIRCULAR     4.00       0          0          0          1
6A5/WP3          CIRCULAR     3.00       0          0          0          1
6A-4/6A-5        CIRCULAR     3.00       0          0          0          1
6A-3/6A-4        CIRCULAR     3.00       0          0          0          1
6A-2/6A-3        CIRCULAR     3.00       0          0          0          1
6A-2/6A-2        CIRCULAR     2.50       0          0          0          1
BL6A/6A-1        CIRCULAR     1.50       0          0          0          1
10-1/10-2        CIRCULAR     2.00       0          0          0          1
LO-2/L0-3        HORSESHOE    2.00       0          0          0          1
LO-3/LO-4        CIRCULAR     2.00       0          0          0          1
LO-4/LO-5        CIRCULAR     2.00       0          0          0          1
LO-5/LO          CIRCULAR     2.00       0          0          0          1
BL-5/5-1         CIRCULAR     1.50       0          0          0          1
5-1/BL           CIRCULAR     1.50       0          0          0          1
LO/LW            HORSESHOE    2.25       0          0          0          1
LW/GL            CIRCULAR     2.50       0          0          0          1
WEIR             RECT_OPEN    0          2.00       0          0          

[LOSSES]
;;Link           Inlet      Outlet     Average    Flap Gate
;;-------------- ---------- ---------- ---------- ----------
LO-1/1-1         0          0          0          NO
1-1/1-2          0          0          0          NO
1-2/1-3          0          0          0          NO
1-3/1-4          0          0          0          NO
LO-2/2-1         0          0          0          NO
2-1/2-2          0          0          0          NO
2-2/2-3          0          0          0          NO
2-3/1-4          0          0          0          NO
1-4/2-4          0          0          0          NO
2-4/2-5          0          0          0          NO
2-5/2-6          0          0          0          NO
2-6/2-7          0          0          0          NO
2-7/2-8          0          0          0          NO
2-8/2-9          0          0          0          NO
2-9/2-10         0          0          0          NO
LO-4/4-1         0          0          0          NO
LO-3/4-1         0          0          0          NO
4-1/4-2          0          0          0          NO
4-2/4-3          0          0          0          NO
4-3/4-4          0          0          0          NO
4-4/2-10         0          0          0          NO
LO-6/6-1         0          0          0          NO
6-1/6-2          0          0          0          NO
6-2/6-3          0          0          0          NO
6-3/6-4          0          0          0          NO
6-4/6-5          0          0          0          NO
6-5/6-6          0          0          0          NO
LO-7/6-5         0          0          0          NO
6-6/6-7          0          0          0          NO
6-7/6-8          0          0          0          NO
6-8/6-9          0          0          0          NO
2-10/2-11        0          0          0          NO
2-11/2-12        0          0          0          NO
2-12/2-13        0          0          0          NO
2-13/2-14        0          0          0          NO
2-14/2-15        0          0          0          NO
2-15/2-16        0          0          0          NO
2-16/2-17        0          0          0          NO
2-17/6-9         0          0          0          NO
6-9/LO-8         0          0          0          NO
LO-11/11-1       0          0          0          NO
11-1/11-2        0          0          0          NO
11-2/11-3        0          0          0          NO
11-3/11-4        0          0          0          NO
11-4/11-5        0          0          0          NO
11-5/11-6        0          0          0          NO
11-6/11-7        0          0          0          NO
11-7/11-8        0          0          0          NO
11-8/11-9        0          0          0          NO
11-9/11-10       0          0          0          NO
11-10/LE         0          0          0          NO
L0-12/12-1       0          0          0          NO
12-1/12-2        0          0          0          NO
12-2/12-3        0          0          0          NO
12-3/12-4        0          0          0          NO
12-4/12-4        0          0          0          NO
12-5/12-6        0          0          0          NO
12-6/LO-10       0          0          0          NO
LO-10/10-1       0          0          0          NO
LO-8/LO-9        0          0          0          NO
LO-9/LO          0          0          0          NO
WP/WP-1          0          0          0          NO
WP-2/WP-3        0          0          0          NO
WP-3/WP-4        0          0          0          NO
WP-4/WP-5        0          0          0          NO
WP-5/WP-6        0          0          0          NO
WP-6/BL          0          0          0          NO
BL-1/WP-2        0          0          0          NO
WP-1/WP-2        0          0          0          NO
BL1-1/WP-2       0          0          0          NO
BL-3/WP-4        0          0          0          NO
BL-2/WP-4        0          0          0          NO
BL-PUMP          0          0          0          NO
DITCH1           0          0          0          NO
DITCH2           0          0          0          NO
PUMP/LO-9        0          0          0          NO
6A5/WP3          0          0          0          NO
6A-4/6A-5        0          0          0          NO
6A-3/6A-4        0          0          0          NO
6A-2/6A-3        0          0          0          NO
6A-2/6A-2        0          0          0          NO
BL6A/6A-1        0          0          0          NO
10-1/10-2        0          0          0          NO
LO-2/L0-3        0          0          0          NO
LO-3/LO-4        0          0          0          NO
LO-4/LO-5        0          0          0          NO
LO-5/LO          0          0          0          NO
BL-5/5-1         0          0          0          NO
5-1/BL           0          0          0          NO
LO/LW            0          0          0          NO
LW/GL            0          0          0          NO

[COORDINATES]
;;Node           X-Coord            Y-Coord
;;-------------- ------------------ ------------------
LK               -2970.96           3611.73           
LO-1             7117.85            12228.42          
LO-2             4613.48            13170.89          
LO-3             1839.39            12809.94          
LO-4             1437.00            11323.65          
LO-6             459.03             8684.01           
LO-7             -2122.90           6543.79           
LO-8             971.44             4495.61           
LO-9             882.63             2064.53           
LO-10            -4793.82           2806.29           
LO-11            -5066.99           -4958.83          
LO-12            -6997.95           3373.04           
1-1              6574.80            12229.78          
1-2              6551.13            11464.03          