;; SWMM5 .inp converted from XPSWMM .xp file
;; Generated by XPSWMM Card Reader
;; Source format: XP_CARD | Original title: 1MTP0108.20 PLAYA VISTA CONCEPTUAL SALT MARSH DESIGN - MTK  08-03-95

[TITLE]
;;Project Title/Notes
1MTP0108.20 PLAYA VISTA CONCEPTUAL SALT MARSH DESIGN - MTK  08-03-95

[OPTIONS]
FLOW_UNITS           CFS
INFILTRATION         HORTON
FLOW_ROUTING         DYNWAVE
LINK_OFFSETS         DEPTH
MIN_SLOPE            0.0
ALLOW_PONDING        NO
SKIP_STEADY_STATE    NO
ROUTING_STEP         00:00:60
VARIABLE_STEP        0.75
INERTIAL_DAMPING     PARTIAL
NORMAL_FLOW_LIMITED  BOTH
MAX_TRIALS           50
HEAD_TOLERANCE       0.0033

[JUNCTIONS]
;;Name           Elev       MaxDepth   InitDepth  SurDepth   Aponded
;;-------------- ---------- ---------- ---------- ---------- ----------
101              20.00      0          8.63       0          0
100              18.00      0          10.55      0          0
110              21.00      0          7.64       0          0
120              22.00      0          7.18       0          0
130              24.40      0          5.56       0          0
140              27.00      0          3.83       0          0
150              31.00      0          0.61       0          0
151              32.33      0          0          0          0
152              33.67      0          0          0          0
153              35.00      0          0          0          0
157              45.18      0          0          0          0
210              17.00      0          1.15       0          0
213              20.00      0          0.13       0          0
230              20.00      0          0          0          0
251              20.00      0          0          0          0
231              11.00      0          0          0          0
252              11.00      0          0          0          0
660              15.00      0          1.13       0          0
610              15.00      0          1.10       0          0
410              15.00      0          1.12       0          0
560              15.00      0          0          0          0
510              15.00      0          0.14       0          0
570              15.00      0          0          0          0
310              15.00      0          1.65       0          0
430              15.00      0          0.78       0          0
370              15.00      0          0          0          0
534              15.00      0          0          0          0
530              15.00      0          0.83       0          0

[STORAGE]
;;Name           Elev       MaxDepth   InitDepth  Shape      Curve/Params
;;-------------- ---------- ---------- ---------- ---------- ----------
226              20.00      -9.00      0          FUNCTIONAL 0 0          0
220              20.00      -9.00      0          FUNCTIONAL 0 0          0
240              20.00      -9.00      0          FUNCTIONAL 0 0          0
241              20.00      -9.00      0          FUNCTIONAL 0 0          0
250              20.00      -9.00      0          FUNCTIONAL 0 0          0
636              15.00      0          0          FUNCTIONAL 0 0          0
634              15.00      0          0.73       FUNCTIONAL 0 0          0
520              15.00      -4.00      0          FUNCTIONAL 0 0          0
650              15.00      0          0.23       FUNCTIONAL 0 0          0
420              14.70      -3.70      0.92       FUNCTIONAL 0 0          0
320              15.00      -4.00      0.47       FUNCTIONAL 0 0          0
322              15.00      -4.00      0          FUNCTIONAL 0 0          0
330              20.00      -9.00      1.21       FUNCTIONAL 0 0          0
332              15.00      -4.00      0          FUNCTIONAL 0 0          0
334              20.00      -9.00      0          FUNCTIONAL 0 0          0
340              20.00      0          0.78       FUNCTIONAL 0 0          0
350              20.00      -9.00      0          FUNCTIONAL 0 0          0
360              15.00      -4.00      0.23       FUNCTIONAL 0 0          0
372              15.00      -4.00      0          FUNCTIONAL 0 0          0
374              15.00      -4.00      0          FUNCTIONAL 0 0          0
376              15.00      -4.00      0          FUNCTIONAL 0 0          0
512              15.00      0          0          FUNCTIONAL 0 0          0
540              15.00      0          0.73       FUNCTIONAL 0 0          0
620              15.00      0          0.93       FUNCTIONAL 0 0          0
622              15.00      0          0.50       FUNCTIONAL 0 0          0
630              15.00      0          0.68       FUNCTIONAL 0 0          0
624              15.00      0          1.12       FUNCTIONAL 0 0          0
626              15.00      0          0          FUNCTIONAL 0 0          0
632              15.00      0          1.26       FUNCTIONAL 0 0          0
640              15.00      0          0.54       FUNCTIONAL 0 0          0
638              15.00      0          0          FUNCTIONAL 0 0          0
662              15.00      0          0.99       FUNCTIONAL 0 0          0
664              15.00      0          0.78       FUNCTIONAL 0 0          0

[CONDUITS]
;;Name           From             To               Length     Roughness  InOffset   OutOffset  InitFlow   MaxFlow
;;-------------- ---------------- ---------------- ---------- ---------- ---------- ---------- ---------- ----------
1001             101              100              1300.00    0.0370     -11.40     -13.32     0          0
1011             110              101              1320.00    0.0330     -10.41     -11.40     0          0
1101             120              110              610.00     0.0260     -9.95      -10.41     0          0
1201             130              120              2170.00    0.0240     -8.33      -9.95      0          0
1301             140              130              2300.00    0.0250     -6.60      -8.33      0          0
1401             150              140              4300.00    0.0240     -3.38      -6.60      0          0
1501             151              150              1000.00    0.0220     -2.56      -3.38      0          0
1511             152              151              1000.00    0.0220     -1.73      -2.56      0          0
1521             153              152              1000.00    0.0220     -0.91      -1.73      0          0
1531             157              153              4000.00    0.0220     7.60       -0.91      0          0
1402             1403             1404             179.20     0.0210     0          0          0          0
2101             213              210              940.00     0.0190     -2.90      -3.92      0          0
2201             2202             220              950.00     0.0350     0          0          0          0
2261             230              226              300.00     0.0650     0.50       -2.00      0          0
2263             2264             226              750.00     0.0350     0.20       0          0          0
2411             250              241              850.00     0.0350     -1.00      -1.50      0          0
2401             2402             250              96.00      0.0290     0          0          0          0
2511             2512             251              299.90     0.0290     0          0          0          0
1102             1104             110              90.00      0.0250     0          6.41       0          0
1202             1203             1204             90.00      0.0250     0          5.95       0          0
1302             1303             1304             130.00     0.0210     0          4.33       0          0
6341             636              634              85.00      0.0380     -1.00      -3.50      0          0
5105             5106             510              50.00      0.0190     0          0.80       0          0
5203             5204             520              45.00      0.0190     0          0.80       0          0
4301             4302             430              225.00     0.0240     0          0          0          0
5401             370              534              135.00     0.0160     -1.82      -1.96      0          0
6501             510              650              160.00     0.0180     0          0          0          0
4101             420              410              520.00     0.0350     -3.69      -3.89      0          0
4201             430              420              360.00     0.0350     -3.55      -3.69      0          0
3101             320              310              480.00     0.0350     -3.24      -4.42      0          0
3201             322              320              650.00     0.0350     -2.25      -3.24      0          0
3204             330              320              570.00     0.0350     -3.98      -3.24      0          0
3301             332              330              650.00     0.0350     -2.00      -3.98      0          0
3304             334              330              410.00     0.0350     -2.20      -3.98      0          0
3307             340              330              100.00     0.0350     -3.55      -3.98      0          0
3401             350              340              680.00     0.0350     -2.29      -3.55      0          0
3501             360              350              750.00     0.0350     -3.00      -2.29      0          0
3701             372              370              1040.00    0.0350     -1.02      -1.82      0          0
3721             374              372              890.00     0.0350     -0.34      -1.02      0          0
3741             376              374              820.00     0.0350     0.29       -0.34      0          0
5101             520              510              540.00     0.0350     -2.75      -2.91      0          0
5103             512              510              540.00     0.0350     -2.76      -2.91      0          0
5201             530              520              490.00     0.0350     -3.60      -2.75      0          0
5121             530              512              540.00     0.0350     -3.60      -2.76      0          0
5301             540              530              320.00     0.0350     -3.50      -3.60      0          0
5304             534              530              830.00     0.0350     -1.96      -3.60      0          0
6101             620              610              325.00     0.0350     -3.70      -3.87      0          0
6201             622              620              680.00     0.0350     -3.27      -3.70      0          0
6203             630              620              480.00     0.0350     -3.45      -3.70      0          0
6221             624              622              600.00     0.0350     -3.89      -3.27      0          0
6241             626              624              615.00     0.0350     -2.50      -3.89      0          0
6304             640              630              285.00     0.0350     -3.31      -3.45      0          0
6321             634              632              815.00     0.0350     -3.50      -4.03      0          0
6361             638              636              435.00     0.0350     -0.50      -1.00      0          0
6401             650              640              600.00     0.0350     -3.00      -3.31      0          0
6601             662              660              340.00     0.0500     -3.76      -3.90      0          0
6621             664              662              545.00     0.0500     -3.55      -3.76      0          0
6641             640              664              605.00     0.0500     -3.31      -3.55      0          0
6301             630              632              640.00     0.0350     -3.45      -4.03      0          0
2301             230              231              150.00     0.2900     0.50       2.45       0          0
2403             241              240              700.00     0.0350     -1.50      -2.00      0          0
3768             360              376              120.00     0.1000     1.50       1.45       0          0
3749             350              374              400.00     0.1000     3.00       2.90       0          0
3727             372              332              270.00     0.0500     3.00       2.90       0          0
3748             374              340              400.00     0.1000     3.00       2.90       0          0

[WEIRS]
;;Name           From             To               Type       CrestHt    Qcoeff     Gated    EndCon   EndCoeff   Surcharge
;;-------------- ---------------- ---------------- ---------- ---------- ---------- -------- -------- ---------- ----------
MUL14            220              213              TRANSVERSE 2.00       1.840      NO       0        0          YES
MUL17            220              340              TRANSVERSE 6.75       1.840      NO       0        0          YES
MUL18            320              540              TRANSVERSE 8.00       1.840      NO       0        0          YES
MUL19            512              634              TRANSVERSE 3.20       1.840      NO       0        0          YES

[XSECTIONS]
;;Link           Shape        Geom1      Geom2      Geom3      Geom4      Barrels
;;-------------- ------------ ---------- ---------- ---------- ---------- ----------
1001             TRAPEZOIDAL  21.40      200.00     0          0          1
1011             TRAPEZOIDAL  21.41      200.00     0          0          1
1101             TRAPEZOIDAL  21.95      200.00     0          0          1
1201             TRAPEZOIDAL  22.73      200.00     0          0          1
1301             TRAPEZOIDAL  23.16      200.00     0          0          1
1401             TRAPEZOIDAL  23.84      200.00     0          0          1
1501             TRAPEZOIDAL  24.89      167.30     0          0          1
1511             TRAPEZOIDAL  25.40      134.70     0          0          1
1521             TRAPEZOIDAL  25.91      102.00     0          0          1
1531             TRAPEZOIDAL  26.46      80.00      0          0          1
1402             CIRCULAR     5.00       0          0          0          1
2101             RECT_CLOSED  6.00       10.00      0          0          1
2201             TRAPEZOIDAL  11.30      35.00      0          0          1
2261             TRAPEZOIDAL  10.50      80.00      0          0          1
2263             TRAPEZOIDAL  10.70      70.00      0          0          1
2411             TRAPEZOIDAL  10.10      40.00      0          0          1
2401             RECT_CLOSED  7.00       10.50      0          0          1
2511             RECT_CLOSED  7.00       10.50      0          0          1
1102             CIRCULAR     5.00       0          0          0          1
1202             CIRCULAR     5.00       0          0          0          1
1302             CIRCULAR     5.00       0          0          0          1
6341             CIRCULAR     2.00       0          0          0          1
5105             RECT_CLOSED  4.00       5.00       0          0          1
5203             RECT_CLOSED  4.00       5.00       0          0          1
4301             RECT_CLOSED  5.00       15.00      0          0          1
5401             CIRCULAR     3.00       0          0          0          1
6501             RECT_CLOSED  4.00       10.00      0          0          1
4101             TRAPEZOIDAL  14.69      40.00      0          0          1
4201             TRAPEZOIDAL  14.69      40.00      0          0          1
3101             TRAPEZOIDAL  14.24      30.00      0          0          1
3201             TRAPEZOIDAL  13.25      5.00       0          0          1
3204             TRAPEZOIDAL  14.00      30.00      0          0          1
3301             TRAPEZOIDAL  13.00      5.00       0          0          1
3304             TRAPEZOIDAL  13.20      5.00       0          0          1
3307             TRAPEZOIDAL  14.55      20.00      0          0          1
3401             TRAPEZOIDAL  13.29      20.00      0          0          1
3501             TRAPEZOIDAL  13.29      20.00      0          0          1
3701             TRAPEZOIDAL  12.02      5.00       0          0          1
3721             TRAPEZOIDAL  11.34      5.00       0          0          1
3741             TRAPEZOIDAL  10.71      5.00       0          0          1
5101             TRAPEZOIDAL  13.75      5.00       0          0          1
5103             TRAPEZOIDAL  14.00      5.00       0          0          1
5201             TRAPEZOIDAL  13.50      5.00       0          0          1
5121             TRAPEZOIDAL  13.50      5.00       0          0          1
5301             TRAPEZOIDAL  14.50      5.00       0          0          1
5304             TRAPEZOIDAL  13.50      5.00       0          0          1
6101             TRAPEZOIDAL  15.00      20.00      0          0          1
6201             TRAPEZOIDAL  14.50      10.00      0          0          1
6203             TRAPEZOIDAL  14.50      20.00      0          0          1
6221             TRAPEZOIDAL  14.50      10.00      0          0          1
6241             TRAPEZOIDAL  14.00      10.00      0          0          1
6304             TRAPEZOIDAL  14.50      20.00      0          0          1
6321             TRAPEZOIDAL  14.00      10.00      0          0          1
6361             TRAPEZOIDAL  11.50      5.00       0          0          1
6401             TRAPEZOIDAL  14.50      10.00      0          0          1
6601             TRAPEZOIDAL  14.50      5.00       0          0          1
6621             TRAPEZOIDAL  14.50      5.00       0          0          1
6641             TRAPEZOIDAL  14.50      5.00       0          0          1
6301             TRAPEZOIDAL  14.00      10.00      0          0          1
2301             RECT_CLOSED  7.25       12.00      0          0          1
2403             TRAPEZOIDAL  12.50      60.00      0          0          1
3768             TRAPEZOIDAL  8.00       50.00      0          0          1
3749             CIRCULAR     8.00       50.00      0          0          1
3727             TRAPEZOIDAL  8.00       50.00      0          0          1
3748             TRAPEZOIDAL  8.00       50.00      0          0          1
MUL14            RECT_OPEN    0          8.67       0          0          
MUL17            RECT_OPEN    0          300.00     0          0          
MUL18            RECT_OPEN    0          20.00      0          0          
MUL19            RECT_OPEN    0          20.00      0          0          

[LOSSES]
;;Link           Inlet      Outlet     Average    Flap Gate
;;-------------- ---------- ---------- ---------- ----------
1001             0          0          0          NO
1011             0          0          0          NO
1101             0          0          0          NO
1201             0          0          0          NO
1301             0          0          0          NO
1401             0          0          0          NO
1501             0          0          0          NO
1511             0          0          0          NO
1521             0          0          0          NO
1531             0          0          0          NO
1402             0          0          0          NO
2101             0          0          0          NO
2201             0          0          0          NO
2261             0          0          0          NO
2263             0          0          0          NO
2411             0          0          0          NO
2401             0          0          0          NO
2511             0          0          0          NO
1102             0          0          0          NO
1202             0          0          0          NO
1302             0          0          0          NO
6341             0          0          0          NO
5105             0          0          0          NO
5203             0          0          0          NO
4301             0          0          0          NO
5401             0          0          0          NO
6501             0          0          0          NO
4101             0          0          0          NO
4201             0          0          0          NO
3101             0          0          0          NO
3201             0          0          0          NO
3204             0          0          0          NO
3301             0          0          0          NO
3304             0          0          0          NO
3307             0          0          0          NO
3401             0          0          0          NO
3501             0          0          0          NO
3701             0          0          0          NO
3721             0          0          0          NO
3741             0          0          0          NO
5101             0          0          0          NO
5103             0          0          0          NO
5201             0          0          0          NO
5121             0          0          0          NO
5301             0          0          0          NO
5304             0          0          0          NO
6101             0          0          0          NO
6201             0          0          0          NO
6203             0          0          0          NO
6221             0          0          0          NO
6241             0          0          0          NO
6304             0          0          0          NO
6321             0          0          0          NO
6361             0          0          0          NO
6401             0          0          0          NO
6601             0          0          0          NO
6621             0          0          0          NO
6641             0          0          0          NO
6301             0          0          0          NO
2301             0          0          0          NO
2403             0          0          0          NO
3768             0          0          0          NO
3749             0          0          0          NO
3727             0          0          0          NO
3748             0          0          0          NO

[INFLOWS]
;;Node           Constituent  Time Series      Type     Mfactor  Sfactor  Baseline Pattern
;;-------------- ------------ ---------------- -------- -------- -------- -------- --------
101              FLOW         ""               FLOW     1.0      1.0      50.00

[COORDINATES]
;;Node           X-Coord            Y-Coord
;;-------------- ------------------ ------------------
101              427.72             -237.07           
100              426.48             -263.59           
110              424.91             -198.86           
120              420.11             -62.32            
130              416.40             305.35            
140              425.50             445.39            
150              425.19             512.08            
151              423.39             537.36            
152              425.65             575.79            
153              426.88             637.49            
157              429.13             667.83            
210              454.04             460.56            
213              546.31             461.57            
226              557.45             587.02            
220              574.64             520.48            
230              541.51             663.46            
240              698.81             635.14            
241              790.60             643.82            
250              917.80             646.43            
251              945.88             645.00            
231              478.40             691.55            
252              969.91             661.77            
660              445.98             -197.85           
610              440.57             -59.29            
410              437.87             324.57            
636              602.86             183.75            
634              655.87             126.32            
560              824.39             67.02             
510              801.10             32.75             
570              827.63             159.95            
520              793.24             140.96            
310              528.56             325.57            
430              499.01             304.33            
370              781.06             325.97            
534              770.82             290.69            
650              783.68             -14.79            
420              464.39             352.89            
320              590.49             358.94            
322              693.70             348.04            
330              622.07             412.56            
332              700.72             426.69            
334              575.23             434.26            
340              613.19             516.72            
350              721.64             583.48            
360              849.31             588.54            
372              782.20             409.80            
374              790.42             491.61            
376              852.24             522.85            
512              685.67             141.16            
530              740.35             229.11            
540              593.46             297.44            
620              483.27             -53.22            
622              488.22             22.30             
630              629.14             -46.14            
624              489.47             103.80            
626              486.68             182.26            
632              642.30             10.27             
640              735.92             -49.18            
638              564.01             233.07            
662              546.54             -204.93           
664              685.73             -153.35           

[MAP]
DIMENSIONS 416.40 -263.59 969.91 691.55
Units      None

[REPORT]
INPUT            YES
SUBCATCHMENTS    ALL
NODES            ALL
LINKS            ALL



