;; SWMM5 .inp converted from XPSWMM .xp file
;; Generated by XPSWMM Card Reader
;; Source format: XP_CARD | Original title: The City of Toledo -- Swan Creek and West Side Interceptors

[TITLE]
;;Project Title/Notes
The City of Toledo -- Swan Creek and West Side Interceptors

[OPTIONS]
FLOW_UNITS           CFS
INFILTRATION         HORTON
FLOW_ROUTING         DYNWAVE
LINK_OFFSETS         DEPTH
MIN_SLOPE            0.0
ALLOW_PONDING        NO
SKIP_STEADY_STATE    NO
ROUTING_STEP         00:00:10
VARIABLE_STEP        0.75
INERTIAL_DAMPING     PARTIAL
NORMAL_FLOW_LIMITED  BOTH
HEAD_TOLERANCE       0.0033

[JUNCTIONS]
;;Name           Elev       MaxDepth   InitDepth  SurDepth   Aponded
;;-------------- ---------- ---------- ---------- ---------- ----------
MH27057          602.07     0          0          0          0
MH27098          616.80     0          0          0          0
MH27250          614.14     0          0          0          0
MH27111          613.90     0          0          0          0
MH27112          615.10     0          0          0          0
MH27114          601.40     0          0          0          0
MH25749          614.10     0          0          0          0
MH21725          591.40     0          0          0          0
MH21417          607.35     0          0          0          0
MH21419          611.12     0          0          0          0
MH24821          585.50     0          0          0          0
MH21959          576.21     0          0          0          0
MH27100          613.90     0          0          0          0
MH27110          616.30     0          0          0          0
MH27142          615.10     0          0          0          0
MH25747          614.90     0          0          0          0
MH21732          609.61     0          0          0          0
MH21726          590.80     0          0          0          0
MH24968          594.10     0          0          0          0
MH27119          585.75     0          0          0          0
MH27117          585.14     0          0          0          0
MH27116          591.04     0          0          0          0
R42              584.13     0          0          0          0
67               584.13     0          0          0          0
REG42            580.00     0          0          0          0
71               584.13     0          0          0          0
73               584.00     0          0          0          0
75               585.50     0          0          0          0
CSO42            584.00     0          0          0          0
79               584.13     0          0          0          0
83               587.00     0          0          0          0
R43              593.00     0          0          0          0
REG43            593.00     0          0          0          0
89               593.00     0          0          0          0
92               593.00     0          0          0          0
ANWAYNE          594.00     0          0          0          0
99               594.00     0          0          0          0
CSO43SCN         580.00     0          0          0          0
R44              591.40     0          0          0          0
REG44            591.40     0          0          0          0
O44              591.40     0          0          0          0
R45              610.00     0          0          0          0
REG45            610.00     0          0          0          0
113              610.00     0          0          0          0
115              610.00     0          0          0          0
123              606.00     0          0          0          0
125              609.00     0          0          0          0
DC45             606.00     0          0          0          0
143              606.00     0          0          0          0
148              610.00     0          0          0          0
CSO45            580.00     0          0          0          0
200              606.00     0          0          0          0
X51              595.00     0          0          0          0
163              595.00     0          0          0          0
REG51            596.75     0          0          0          0
167              596.75     0          0          0          0
R51              596.75     0          0          0          0
172              595.00     0          0          0          0
R47              618.00     0          0          0          0
DC47             618.00     0          0          0          0
REG47            586.00     0          0          0          0
196              586.00     0          0          0          0
197              585.00     0          0          0          0
201              586.00     0          0          0          0
XX               585.00     0          0          0          0
206              585.00     0          0          0          0
215              613.18     0          0          0          0
REG46            608.51     0          0          0          0
218              608.51     0          0          0          0
220              608.51     0          0          0          0
CSO46            594.00     0          0          0          0
DC46             613.18     0          0          0          0
228              613.18     0          0          0          0
46FG             616.09     0          0          0          0
R48              587.00     0          0          0          0
REG48            586.00     0          0          0          0
241              586.00     0          0          0          0
D48FG            581.30     0          0          0          0
245              594.00     0          0          0          0
249              586.00     0          0          0          0
DC48             585.00     0          0          0          0
CSO48            585.00     0          0          0          0
R49              603.00     0          0          0          0
REG49            602.07     0          0          0          0
262              602.07     0          0          0          0
265              602.07     0          0          0          0
CSO49            602.00     0          0          0          0
S                590.00     0          0          0          0
R50              610.00     0          0          0          0
REG50            591.00     0          0          0          0
274              591.00     0          0          0          0
276              591.00     0          0          0          0
DC50             584.00     0          0          0          0
280              584.00     0          0          0          0
CSO50            584.00     0          0          0          0
285              600.00     0          0          0          0
298              586.00     0          0          0          0
MH29             587.60     0          0          0          0
MH28             585.52     0          0          0          0
MH25             612.07     0          0          0          0
MH24             593.09     0          0          0          0
MH23             594.16     0          0          0          0
MH22             596.99     0          0          0          0
MH21             600.14     0          0          0          0
MH19             601.04     0          0          0          0
MH18             601.79     0          0          0          0
MH17             604.17     0          0          0          0
MH16             605.55     0          0          0          0
MH15             607.25     0          0          0          0
MH14             603.95     0          0          0          0
MH13             600.08     0          0          0          0
MH12             599.95     0          0          0          0
MH11             597.98     0          0          0          0
MH10             597.34     0          0          0          0
MH09             596.17     0          0          0          0
MH08             593.42     0          0          0          0
MH07             594.66     0          0          0          0
MH06             593.09     0          0          0          0
MH05             590.23     0          0          0          0
MH04             590.81     0          0          0          0
MH03             588.34     0          0          0          0
MH02             588.29     0          0          0          0
MH01             584.10     0          0          0          0
MH73             585.16     0          0          0          0
MH72             589.16     0          0          0          0
MH60             607.51     0          0          0          0
MH59             609.76     0          0          0          0
DWF41            600.88     0          0          0          0
377              589.08     0          0          0          0
379              586.16     0          0          0          0
MH56             583.67     0          0          0          0
MH70             614.15     0          0          0          0
MH69             616.19     0          0          0          0
MH66             612.32     0          0          0          0
MH64             612.06     0          0          0          0
MH62             604.52     0          0          0          0
398              589.08     0          0          0          0
R32              586.16     0          0          0          0
REG32            586.16     0          0          0          0
405              586.16     0          0          0          0
CSO32            586.16     0          0          0          0
R33              614.15     0          0          0          0
REG33            614.15     0          0          0          0
413              614.15     0          0          0          0
CSODT            579.00     0          0          0          0
R31              587.41     0          0          0          0
DC31             587.41     0          0          0          0
423              587.41     0          0          0          0
REG31            582.89     0          0          0          0
428              582.89     0          0          0          0
431              582.89     0          0          0          0
CSO31            582.70     0          0          0          0
R30              595.99     0          0          0          0
DC30             595.99     0          0          0          0
REG30            584.16     0          0          0          0
455              584.16     0          0          0          0
458              584.16     0          0          0          0
CSO30            584.16     0          0          0          0
R29              589.46     0          0          0          0
DC29             589.46     0          0          0          0
466              589.46     0          0          0          0
REG29            584.18     0          0          0          0
473              584.18     0          0          0          0
476              584.18     0          0          0          0
429              579.00     0          0          0          0
CSO29B           578.00     0          0          0          0
R28B             589.80     0          0          0          0
DC28B            589.80     0          0          0          0
REG28B           587.07     0          0          0          0
R28A             592.96     0          0          0          0
DC28A            592.96     0          0          0          0
REG28            587.07     0          0          0          0
493              587.07     0          0          0          0
496              587.07     0          0          0          0
498              587.07     0          0          0          0
JUNC28           580.00     0          0          0          0
CSO28            580.00     0          0          0          0
505              589.80     0          0          0          0
508              592.96     0          0          0          0
R27              603.60     0          0          0          0
DC27             603.60     0          0          0          0
516              603.60     0          0          0          0
REG27            586.07     0          0          0          0
521              586.07     0          0          0          0
524              586.07     0          0          0          0
CSO27            580.00     0          0          0          0
R26              601.13     0          0          0          0
REG26            601.13     0          0          0          0
532              601.13     0          0          0          0
CSO26            601.13     0          0          0          0
536              601.13     0          0          0          0
R25              589.56     0          0          0          0
REG25            589.56     0          0          0          0
542              589.56     0          0          0          0
545              589.56     0          0          0          0
FLAP25           589.56     0          0          0          0
CSO25            589.56     0          0          0          0
R24              593.64     0          0          0          0
REG24            587.50     0          0          0          0
554              587.50     0          0          0          0
557              587.50     0          0          0          0
EXT24            587.50     0          0          0          0
FLAP24           587.50     0          0          0          0
CSO24            587.50     0          0          0          0
R23              593.46     0          0          0          0
REG23            593.46     0          0          0          0
568              593.46     0          0          0          0
571              593.46     0          0          0          0
CSO23            593.46     0          0          0          0
DWF22            592.70     0          0          0          0
CSO29A           578.00     0          0          0          0
583              586.00     0          0          0          0
BAYOUT           581.16     0          0          0          0
@46B             608.00     0          0          0          0
R46              618.00     0          0          0          0
@46A             615.00     0          0          0          0
880              614.00     0          0          0          0
CSO33            600.00     0          0          0          0
890              590.00     0          0          0          0
CSOSCS           590.00     0          0          0          0
CSO47            585.00     0          0          0          0

[STORAGE]
;;Name           Elev       MaxDepth   InitDepth  Shape      Curve/Params
;;-------------- ---------- ---------- ---------- ---------- ----------
SWANNORTH        595.00     0          0          FUNCTIONAL 0 0          0
SWANSOUTH        596.00     0          0          FUNCTIONAL 0 0          0
DOWNTOWN         583.10     0          0          FUNCTIONAL 0 0          0
BAYVIEW          581.16     0          0          FUNCTIONAL 0 0          0

[CONDUITS]
;;Name           From             To               Length     Roughness  InOffset   OutOffset  InitFlow   MaxFlow
;;-------------- ---------------- ---------------- ---------- ---------- ---------- ---------- ---------- ----------
swan1            MH27057          MH27098          838.00     0.0150     570.77     570.20     0          0
swan2            MH27098          MH27250          433.00     0.0150     570.20     568.30     0          0
swan6            MH27111          MH27112          303.00     0.0150     568.05     568.65     0          0
swan7            MH27112          MH27114          890.00     0.0150     568.65     566.55     0          0
swan14           MH21417          MH21419          1366.00    0.0150     561.50     560.54     0          0
swan17           MH24821          MH21959          1352.00    0.0150     562.50     561.71     0          0
swan3            MH27250          MH27100          486.00     0.0150     568.30     569.70     0          0
swan4            MH27100          MH27110          826.00     0.0150     569.70     569.05     0          0
swan5            MH27110          MH27111          634.00     0.0150     569.05     568.05     0          0
swan8            MH27114          MH27142          971.00     0.0150     566.55     566.00     0          0
swan9            MH27142          MH25749          951.00     0.0150     566.00     566.20     0          0
swan10           MH25749          MH25747          1090.00    0.0150     566.20     564.55     0          0
swan11           MH25747          MH21732          1984.00    0.0150     564.55     563.56     0          0
swan12           MH21732          MH21725          1174.00    0.0150     563.56     562.10     0          0
swan13           MH21726          MH21417          614.00     0.0150     560.65     561.50     0          0
swan15           MH21419          MH24968          900.00     0.0150     560.54     560.70     0          0
swan16           MH24968          MH24821          867.00     0.0150     560.70     562.50     0          0
swan18           MH27119          MH27117          257.00     0.0150     569.25     569.09     0          0
swan19           MH27117          MH27116          528.00     0.0150     569.09     568.64     0          0
swan20           MH27116          MH27114          718.00     0.0150     568.64     568.05     0          0
CS42             R42              67               300.00     0.0160     573.61     573.01     0          0
DRY42            67               REG42            60.00      0.0160     573.01     572.89     0          0
OVR42            73               CSO42            170.00     0.0160     572.89     572.55     0          0
TNL42A           71               79               40.00      0.0150     571.50     571.34     0          0
TNL42B           79               83               524.00     0.0150     571.34     569.97     0          0
TNL42C           83               SWANNORTH        312.00     0.0150     569.97     569.00     0          0
CS43             R43              REG43            500.00     0.0150     573.48     573.10     0          0
WET43            92               ANWAYNE          92.00      0.0150     573.10     571.87     0          0
OVR43            99               CSO43SCN         104.00     0.0150     571.74     571.36     0          0
TNL43            ANWAYNE          SWANNORTH        32.00      0.0150     569.63     568.17     0          0
CS44             R44              REG44            500.00     0.0150     573.67     572.42     0          0
RET44            O44              MH21725          8.00       0.0150     571.25     568.01     0          0
CS45             R45              REG45            500.00     0.0160     581.10     579.10     0          0
5145C            125              MH21417          17.20      0.0150     565.37     565.31     0          0
WET45            115              DC45             40.00      0.0160     579.10     578.25     0          0
RET51B           143              123              22.40      0.0150     570.65     570.57     0          0
5145A            123              148              468.70     0.0150     570.28     568.14     0          0
5145B            148              125              987.70     0.0150     568.14     565.37     0          0
OVR45            200              CSO45            170.00     0.0160     578.00     572.00     0          0
SAN51A           X51              163              480.00     0.0150     575.51     574.07     0          0
SAN51B           163              REG51            165.00     0.0150     574.07     573.25     0          0
CS51             R51              REG51            400.00     0.0150     577.45     576.25     0          0
TNL51            172              SWANNORTH        21.00      0.0150     574.00     573.50     0          0
30"              36"              MH21726          175.00     0.0150     562.31     552.27     0          0
RET51A           167              143              364.00     0.0150     573.25     571.09     0          0
CS47A            R47              DC47             500.00     0.0150     575.80     575.20     0          0
CS47B            DC47             REG47            1225.00    0.0150     575.20     573.73     0          0
OVR47            196              197              35.00      0.0150     573.73     573.30     0          0
16" A            16" B            MH27119          95.50      0.0150     571.74     562.74     0          0
WET46            215              REG46            209.55     0.0160     582.61     578.00     0          0
TNL46A           228              46FG             722.00     0.0150     555.04     551.42     0          0
TNL46B           46FG             SWANSOUTH        100.00     0.0150     551.40     550.62     0          0
CS48             R48              REG48            300.00     0.0160     578.59     576.34     0          0
TNL48B           D48FG            245              200.00     0.0150     551.70     551.44     0          0
RET48            249              206              1320.00    0.0150     575.35     573.22     0          0
WET48            241              DC48             120.00     0.0160     576.34     574.80     0          0
TNL48A           DC48             D48FG            324.00     0.0150     570.72     568.43     0          0
OVR48            DC48             CSO48            280.00     0.0160     574.80     572.66     0          0
TNL48C           245              SWANSOUTH        1009.00    0.0150     551.44     550.31     0          0
CS49             R49              REG49            150.00     0.0160     589.48     589.25     0          0
RET49            262              MH27057          50.00      0.0150     587.46     585.00     0          0
OVR49            265              CSO49            280.00     0.0160     589.25     583.35     0          0
OVRSCS           SWANSOUTH        S                170.00     0.0150     567.17     567.58     0          0
CS50             R50              REG50            330.00     0.0160     582.57     581.25     0          0
WET50            276              DC50             224.00     0.0150     581.25     574.80     0          0
TNL50            280              SWANSOUTH        1738.04    0.0150     557.03     553.44     0          0
RET50A           274              285              480.00     0.0150     581.00     574.25     0          0
RET50B           285              MH27057          373.00     0.0150     573.26     572.02     0          0
OVR50            DC50             CSO50            36.00      0.0160     574.50     573.71     0          0
RETURN42         75               MH24821          350.00     0.0150     571.67     568.00     0          0
RETURN43         89               MH24968          15.00      0.0150     570.58     569.53     0          0
RETURN45         113              123              40.00      0.0110     578.10     571.41     0          0
20" GATE         20" FREE         298              8.00       0.0150     573.30     573.00     0          0
RET47B           298              206              50.00      0.0150     573.00     572.14     0          0
RETURN46         218              MH25749          228.00     0.0150     574.37     569.00     0          0
west1            MH21959          MH29             1350.00    0.0150     559.73     559.40     0          0
west2            MH29             MH28             585.00     0.0150     559.40     559.07     0          0
west3            MH28             MH25             660.00     0.0150     559.07     558.62     0          0
west4            MH25             MH24             590.00     0.0150     558.12     557.79     0          0
west5            MH24             MH23             540.00     0.0150     557.79     557.59     0          0
west6            MH23             MH22             530.00     0.0150     557.59     557.39     0          0
west7            MH22             MH21             530.00     0.0150     557.39     557.24     0          0
west8            MH21             MH19             1570.00    0.0150     556.99     556.04     0          0
west10           MH18             MH17             950.00     0.0150     555.89     555.47     0          0
west11           MH17             MH16             1175.00    0.0150     555.47     555.15     0          0
west12           MH16             MH15             1020.00    0.0150     555.15     554.55     0          0
west13           MH15             MH14             830.00     0.0150     554.55     554.30     0          0
west14           MH14             MH13             1010.00    0.0150     554.30     554.25     0          0
west15           MH13             MH12             1010.00    0.0150     554.25     553.80     0          0
west16           MH12             MH11             1000.00    0.0150     553.80     553.23     0          0
west17           MH11             MH10             610.00     0.0150     553.23     552.64     0          0
west18           MH10             MH09             780.00     0.0150     552.64     552.22     0          0
west19           MH09             MH08             890.00     0.0150     552.22     551.77     0          0
west20           MH08             MH07             1390.00    0.0150     551.77     551.31     0          0
west21           MH07             MH06             1000.00    0.0150     551.31     551.03     0          0
west22           MH06             MH05             1380.00    0.0150     551.03     550.18     0          0
west23           MH05             MH04             920.00     0.0150     550.18     550.02     0          0
west24           MH04             MH03             960.00     0.0150     550.02     549.33     0          0
west25           MH03             MH02             880.00     0.0150     549.33     549.29     0          0
west26           MH02             MH01             1000.00    0.0150     549.29     548.58     0          0
RET32A           MH73             MH72             610.00     0.0150     572.22     571.29     0          0
RET32B           MH72             MH60             720.00     0.0150     571.29     570.31     0          0
wsb1             MH60             MH59             450.00     0.0150     569.81     568.91     0          0
wsb2             MH59             DWF41            760.00     0.0150     568.91     568.58     0          0
wsb3             DWF41            377              300.00     0.0160     568.08     566.86     0          0
wsb4             379              MH56             35.00      0.0160     563.66     563.47     0          0
wsb5             MH56             MH21959          50.00      0.0160     563.47     561.16     0          0
RET33A           MH70             MH69             680.00     0.0140     583.95     583.39     0          0
RET33B           MH69             MH66             1320.00    0.0140     583.39     580.72     0          0
RET33C           MH66             MH64             1350.00    0.0140     580.72     576.46     0          0
RET33D           MH64             MH62             1150.00    0.0140     576.46     573.30     0          0
RET33E           MH62             MH60             1350.00    0.0140     573.30     570.31     0          0
14"a             12"a             398              82.00      0.0140     565.74     551.76     0          0
14"b             12"b             379              95.00      0.0140     551.76     551.51     0          0
CS32             R32              REG32            200.00     0.0160     573.40     572.90     0          0
OVR32            405              CSO32            228.00     0.0160     572.90     572.33     0          0
CS33             R33              REG33            500.00     0.0160     588.37     587.87     0          0
OVRDT            DOWNTOWN         CSODT            154.00     0.0150     563.70     566.00     0          0
CS31A            R31              DC31             500.00     0.0160     574.42     574.17     0          0
TNL31            423              DOWNTOWN         37.50      0.0150     549.07     548.92     0          0
CS31B            DC31             REG31            720.00     0.0160     574.17     573.75     0          0
OVR31            431              CSO31            274.00     0.0160     573.75     572.38     0          0
RETURN31         428              MH25             200.00     0.0150     572.04     570.44     0          0
CS30A            R30              DC30             500.00     0.0160     574.90     573.80     0          0
CS30B            DC30             REG30            760.00     0.0160     573.80     573.10     0          0
RETURN30         455              MH24             120.00     0.0150     571.16     570.20     0          0
OVR30            458              CSO30            380.00     0.0160     573.10     571.08     0          0
CS29A            R29              DC29             500.00     0.0160     574.50     573.67     0          0
TNL29            466              DOWNTOWN         30.00      0.0150     548.19     548.07     0          0
CS29B            DC29             REG29            760.00     0.0160     573.67     572.89     0          0
RETURN29         473              MH22             80.00      0.0150     570.17     569.69     0          0
OVR29            476              429              140.00     0.0160     572.89     572.66     0          0
CS28C            R28B             DC28B            500.00     0.0160     578.00     574.00     0          0
CS28D            DC28B            REG28B           850.00     0.0160     574.00     573.05     0          0
CS28A            R28A             DC28A            500.00     0.0160     573.36     572.91     0          0