;; SWMM5 .inp converted from XPSWMM .xp file
;; Generated by XPSWMM Card Reader
;; Source format: XP_CARD | Original title: rain 95/4/18

[TITLE]
;;Project Title/Notes
rain 95/4/18

[OPTIONS]
FLOW_UNITS           CMS
INFILTRATION         HORTON
FLOW_ROUTING         DYNWAVE
LINK_OFFSETS         DEPTH
MIN_SLOPE            0.0
ALLOW_PONDING        NO
SKIP_STEADY_STATE    NO
ROUTING_STEP         00:00:60
VARIABLE_STEP        0.75
INERTIAL_DAMPING     PARTIAL
NORMAL_FLOW_LIMITED  BOTH

[JUNCTIONS]
;;Name           Elev       MaxDepth   InitDepth  SurDepth   Aponded
;;-------------- ---------- ---------- ---------- ---------- ----------
19a.1            118.75     0          0          0          0
19b.1            118.49     0          0          0          0
19c.1            117.40     0          0          0          0
19d.1            115.44     0          0          0          0
19e.1            113.14     0          0          0          0
19f.1            111.87     0          0          0          0
19g.1            105.50     0          0          0          0
19g-1.1          105.50     0          0          0          0
19h.1            112.02     0          0          0          0
19i.1            108.21     0          0          0          0
19j.1            106.34     0          0          0          0
19k.1            105.03     0          0          0          0
19l.1            104.15     0          0          0          0
19.1             103.04     0          0          0          0
20a.1            106.40     0          0          0          0
20b.1            106.09     0          0          0          0
20c.1            106.40     0          0          0          0
20d.1            106.41     0          0          0          0
20e.1            101.28     0          0          0          0
20.1             100.68     0          0          0          0
21a.1            120.19     0          0          0          0
21b.1            119.76     0          0          0          0
21c.1            118.92     0          0          0          0
21d.1            116.37     0          0          0          0
21e.1            114.41     0          0          0          0
21f.1            109.98     0          0          0          0
21g.1            108.81     0          0          0          0
21h.1            104.64     0          0          0          0
21i.1            103.32     0          0          0          0
21j.1            101.97     0          0          0          0
21k.1            101.00     0          0          0          0
21l.1            99.31      0          0          0          0
21.1             99.29      0          0          0          0
22a.1            108.11     0          0          0          0
22b.1            107.34     0          0          0          0
22c.1            103.12     0          0          0          0
22.1             98.80      0          0          0          0
23a.1            106.12     0          0          0          0
23b.1            101.74     0          0          0          0
23c.1            99.84      0          0          0          0
23d.1            98.39      0          0          0          0
23.1             98.39      0          0          0          0
24a.1            99.84      0          0          0          0
24b.1            99.00      0          0          0          0
24c.1            97.49      0          0          0          0
24.1             97.20      0          0          0          0
25a.1            99.29      0          0          0          0
25b.1            97.23      0          0          0          0
25.1             96.58      0          0          0          0
26a.1            104.45     0          0          0          0
26b.1            101.79     0          0          0          0
26c.1            96.45      0          0          0          0
26.1             95.48      0          0          0          0
27a.1            94.94      0          0          0          0
27.1             94.95      0          0          0          0
28a.1            107.34     0          0          0          0
28b.1            104.57     0          0          0          0
28c.1            95.28      0          0          0          0
28d.1            94.15      0          0          0          0
28e.1            94.00      0          0          0          0
28f.1            93.62      0          0          0          0
28.1             93.21      0          0          0          0
29a.1            94.42      0          0          0          0
29b.1            94.32      0          0          0          0
29c.1            94.51      0          0          0          0
29.1             94.11      0          0          0          0
30a.1            97.56      0          0          0          0
30b.1            97.50      0          0          0          0
30.1             94.11      0          0          0          0
31.1             94.11      0          0          0          0
32a.1            101.70     0          0          0          0
32b.1            98.08      0          0          0          0
32c.1            98.08      0          0          0          0
32d.1            96.15      0          0          0          0
32e.1            94.37      0          0          0          0
32f.1            93.73      0          0          0          0
32.1             91.26      0          0          0          0
33a.1            93.73      0          0          0          0
33a-1.1          93.73      0          0          0          0
33.1             90.87      0          0          0          0
OUT              90.87      0          0          0          0

[CONDUITS]
;;Name           From             To               Length     Roughness  InOffset   OutOffset  InitFlow   MaxFlow
;;-------------- ---------------- ---------------- ---------- ---------- ---------- ---------- ---------- ----------
19a              19a.1            19b.1            43.00      0.0130     117.10     116.84     0          0
19b              19b.1            19c.1            116.00     0.0130     116.11     115.64     0          0
19c              19c.1            19d.1            102.00     0.0130     114.75     114.44     0          0
19d              19d.1            19e.1            114.00     0.0130     111.21     111.04     0          0
19e              19e.1            19f.1            29.00      0.0130     109.81     109.77     0          0
19f              19f.1            19g.1            216.00     0.0130     103.72     103.40     0          0
19g              19g.1            19g-1.1          84.00      0.0130     101.14     101.02     0          0
19g-1            19g-1.1          19.1             50.00      0.0130     101.02     100.94     0          0
290.1            290.2            19i.1            139.00     0.0130     111.72     107.91     0          0
291.1            291.2            19j.1            39.00      0.0130     107.21     106.04     0          0
19j              19j.1            19k.1            34.00      0.0130     105.58     104.63     0          0
19k              19k.1            19l.1            37.00      0.0130     104.62     103.75     0          0
19l              19l.1            19.1             94.00      0.0130     102.38     102.14     0          0
19               19.1             20.1             92.00      0.0130     98.72      98.58      0          0
296.1            296.2            20b.1            74.00      0.0130     106.09     105.79     0          0
297.1            297.2            20c.1            42.00      0.0130     105.69     105.56     0          0
298.1            298.2            20d.1            62.00      0.0130     105.04     104.83     0          0
299.1            299.2            20e.1            69.00      0.0130     100.99     100.88     0          0
300.1            300.2            20.1             29.00      0.0130     100.88     100.28     0          0
20               20.1             21.1             40.00      0.0130     96.03      95.97      0          0
21a              21a.1            21b.1            112.00     0.0130     119.25     118.86     0          0
21b              21b.1            21c.1            52.00      0.0130     118.20     118.02     0          0
21c              21c.1            21d.1            97.00      0.0130     115.81     115.47     0          0
21d              21d.1            21e.1            126.00     0.0130     113.95     113.51     0          0
21e              21e.1            21f.1            168.00     0.0130     109.67     109.08     0          0
21f              21f.1            21g.1            67.00      0.0130     108.14     107.91     0          0
21g              21g.1            21h.1            98.00      0.0130     103.47     103.20     0          0
21h              21h.1            21i.1            21.00      0.0130     101.94     101.88     0          0
21i              21i.1            21j.1            108.00     0.0130     100.63     100.33     0          0
21j              21j.1            21k.1            40.00      0.0130     99.67      99.56      0          0
21k              21k.1            21l.1            79.00      0.0130     98.07      97.85      0          0
21l              21l.1            21.1             16.00      0.0130     97.75      97.70      0          0
21               21.1             22.1             27.00      0.0130     95.97      95.92      0          0
22a              22a.1            22b.1            120.00     0.0130     107.81     107.04     0          0
316.1            316.2            22c.1            116.00     0.0130     106.30     102.82     0          0
317.1            317.2            22.1             119.00     0.0130     102.07     98.50      0          0
22               22.1             23.1             26.00      0.0130     95.92      95.89      0          0
319.1            319.2            23b.1            76.00      0.0130     103.72     101.44     0          0
320.1            320.2            23c.1            21.00      0.0130     100.17     99.54      0          0
321.1            321.2            23d.1            61.00      0.0130     99.53      98.09      0          0
23d              23d.1            23.1             10.00      0.0130     97.78      97.74      0          0
23               23.1             24.1             78.00      0.0130     94.98      94.86      0          0
324.1            324.2            24b.1            58.00      0.0130     99.53      98.70      0          0
325.1            325.2            24c.1            45.00      0.0130     98.54      97.19      0          0
326.1            326.2            24.1             36.00      0.0130     97.19      96.90      0          0
24               24.1             25.1             42.00      0.0130     94.30      94.24      0          0
328.1            328.2            25b.1            160.00     0.0130     98.99      96.93      0          0
329.1            329.2            25.1             30.00      0.0130     96.93      96.28      0          0
25               25.1             26.1             101.00     0.0130     93.29      93.14      0          0
26a              26a.1            26b.1            160.00     0.0130     101.53     101.29     0          0
26b              26b.1            26c.1            122.00     0.0130     97.78      95.95      0          0
26c              26c.1            26.1             16.00      0.0130     94.68      94.58      0          0
26               26.1             27.1             44.00      0.0130     92.78      92.71      0          0
335.1            335.2            27.1             44.00      0.0130     94.64      94.51      0          0
27               27.1             28.1             178.00     0.0130     91.19      90.92      0          0
28a              28a.1            28b.1            182.00     0.0130     107.00     104.27     0          0
28b              28b.1            28c.1            156.00     0.0130     99.25      94.88      0          0
28c              28c.1            28d.1            98.00      0.0130     93.64      93.25      0          0
28d              28d.1            28e.1            34.00      0.0130     93.12      93.00      0          0
28e              28e.1            28f.1            72.00      0.0130     92.65      92.42      0          0
28f              28f.1            28.1             90.00      0.0130     92.30      92.01      0          0
28               28.1             29.1             41.00      0.0130     90.48      90.42      0          0
344.1            344.2            29b.1            140.00     0.0130     94.12      93.70      0          0
345.1            345.2            29c.1            36.00      0.0130     93.70      93.59      0          0
346.1            346.2            29.1             44.00      0.0130     93.00      92.86      0          0
29               29.1             30.1             36.00      0.0130     90.42      90.36      0          0
348.1            348.2            30b.1            72.00      0.0130     97.26      97.04      0          0
349.1            349.2            30.1             185.00     0.0130     96.82      93.71      0          0
30               30.1             31.1             14.00      0.0130     88.61      88.56      0          0
31               31.1             32.1             78.00      0.0130     88.56      88.45      0          0
32a              32a.1            32b.1            197.00     0.0130     101.27     97.68      0          0
32b              32b.1            32c.1            15.00      0.0130     95.54      95.30      0          0
32c              32c.1            32d.1            50.00      0.0130     95.30      94.50      0          0
32d              32d.1            32e.1            47.00      0.0130     94.43      93.77      0          0
32e              32e.1            32f.1            91.00      0.0130     93.03      92.53      0          0
32f              32f.1            32.1             132.00     0.0130     91.22      90.06      0          0
32               32.1             33.1             45.00      0.0130     88.39      88.32      0          0
359.1            359.2            33a-1.1          50.00      0.0130     93.43      93.36      0          0
360.1            360.2            33.1             141.00     0.0130     93.36      90.57      0          0
33               33.1             OUT              100.00     0.0130     88.32      87.74      0          0

[XSECTIONS]
;;Link           Shape        Geom1      Geom2      Geom3      Geom4      Barrels
;;-------------- ------------ ---------- ---------- ---------- ---------- ----------
19a              CIRCULAR     0.60       0          0          0          1
19b              CIRCULAR     0.70       0          0          0          1
19c              CIRCULAR     0.60       0          0          0          1
19d              HORSESHOE    2.10       2.10       0          0          1
19e              HORSESHOE    2.10       2.10       0          0          1
19f              HORSESHOE    2.10       2.10       0          0          1
19g              HORSESHOE    2.10       2.10       0          0          1
19g-1            HORSESHOE    2.10       2.10       0          0          1
290.1            RECT_CLOSED  0.30       0.30       0          0          1
291.1            RECT_CLOSED  0.30       0.30       0          0          1
19j              HORSESHOE    0.40       0.40       0          0          1
19k              HORSESHOE    0.40       0.40       0          0          1
19l              HORSESHOE    0.90       1.00       0          0          1
19               HORSESHOE    2.10       2.10       0          0          1
296.1            RECT_CLOSED  0.30       0.30       0          0          1
297.1            RECT_CLOSED  0.40       0.40       0          0          1
298.1            RECT_CLOSED  0.40       0.40       0          0          1
299.1            RECT_CLOSED  0.40       0.40       0          0          1
300.1            RECT_CLOSED  0.40       0.40       0          0          1
20               RECT_CLOSED  2.20       2.20       0          0          1
21a              HORSESHOE    0.90       0.90       0          0          1
21b              HORSESHOE    0.90       0.90       0          0          1
21c              HORSESHOE    0.90       0.90       0          0          1
21d              HORSESHOE    0.90       0.90       0          0          1
21e              HORSESHOE    0.90       0.90       0          0          1
21f              HORSESHOE    0.90       0.90       0          0          1
21g              HORSESHOE    1.44       1.20       0          0          1
21h              HORSESHOE    1.44       1.20       0          0          1
21i              HORSESHOE    1.44       1.20       0          0          1
21j              HORSESHOE    1.44       1.20       0          0          1
21k              HORSESHOE    1.44       1.20       0          0          1
21l              HORSESHOE    1.56       1.80       0          0          1
21               HORSESHOE    2.34       2.60       0          0          1
22a              HORSESHOE    0.30       0.30       0          0          1
316.1            RECT_CLOSED  0.30       0.30       0          0          1
317.1            RECT_CLOSED  0.30       0.30       0          0          1
22               HORSESHOE    2.34       2.60       0          0          1
319.1            RECT_CLOSED  0.30       0.30       0          0          1
320.1            RECT_CLOSED  0.30       0.30       0          0          1
321.1            RECT_CLOSED  0.30       0.30       0          0          1
23d              HORSESHOE    0.50       0.50       0          0          1
23               HORSESHOE    2.34       2.60       0          0          1
324.1            RECT_CLOSED  0.30       0.30       0          0          1
325.1            RECT_CLOSED  0.30       0.30       0          0          1
326.1            RECT_CLOSED  0.30       0.30       0          0          1
24               HORSESHOE    2.34       2.60       0          0          1
328.1            RECT_CLOSED  0.30       0.30       0          0          1
329.1            RECT_CLOSED  0.30       0.30       0          0          1
25               HORSESHOE    2.34       2.60       0          0          1
26a              HORSESHOE    0.50       0.50       0          0          1
26b              HORSESHOE    0.50       0.50       0          0          1
26c              RECT_CLOSED  0.70       1.00       0          0          1
26               HORSESHOE    2.24       2.80       0          0          1
335.1            RECT_CLOSED  0.30       0.30       0          0          1
27               HORSESHOE    2.24       2.80       0          0          1
28a              HORSESHOE    0.30       0.30       0          0          1
28b              HORSESHOE    0.40       0.40       0          0          1
28c              HORSESHOE    0.90       0.90       0          0          1
28d              HORSESHOE    1.00       1.00       0          0          1
28e              HORSESHOE    1.20       1.20       0          0          1
28f              HORSESHOE    1.20       1.20       0          0          1
28               HORSESHOE    2.32       2.90       0          0          1
344.1            RECT_CLOSED  0.30       0.30       0          0          1
345.1            RECT_CLOSED  0.30       0.30       0          0          1
346.1            RECT_CLOSED  0.40       0.40       0          0          1
29               HORSESHOE    2.32       2.90       0          0          1
348.1            RECT_CLOSED  0.30       0.30       0          0          1
349.1            RECT_CLOSED  0.40       0.40       0          0          1
30               CIRCULAR     2.30       0          0          0          1
31               HORSESHOE    1.90       3.80       0          0          1
32a              HORSESHOE    0.40       0.40       0          0          1
32b              CIRCULAR     0.60       0          0          0          1
32c              CIRCULAR     0.60       0.00       0          0          1
32d              HORSESHOE    0.60       0.60       0          0          1
32e              HORSESHOE    1.00       0.90       0          0          1
32f              HORSESHOE    1.00       0.90       0          0          1
32               HORSESHOE    2.00       4.00       0          0          1
359.1            RECT_CLOSED  0.30       0.30       0          0          1
360.1            RECT_CLOSED  0.30       0.30       0          0          1
33               HORSESHOE    2.00       4.00       0          0          1

[LOSSES]
;;Link           Inlet      Outlet     Average    Flap Gate
;;-------------- ---------- ---------- ---------- ----------
19a              0          0          0          NO
19b              0          0          0          NO
19c              0          0          0          NO
19d              0          0          0          NO
19e              0          0          0          NO
19f              0          0          0          NO
19g              0          0          0          NO
19g-1            0          0          0          NO
290.1            0          0          0          NO
291.1            0          0          0          NO
19j              0          0          0          NO
19k              0          0          0          NO
19l              0          0          0          NO
19               0          0          0          NO
296.1            0          0          0          NO
297.1            0          0          0          NO
298.1            0          0          0          NO
299.1            0          0          0          NO
300.1            0          0          0          NO
20               0          0          0          NO
21a              0          0          0          NO
21b              0          0          0          NO
21c              0          0          0          NO
21d              0          0          0          NO
21e              0          0          0          NO
21f              0          0          0          NO
21g              0          0          0          NO
21h              0          0          0          NO
21i              0          0          0          NO
21j              0          0          0          NO
21k              0          0          0          NO
21l              0          0          0          NO
21               0          0          0          NO
22a              0          0          0          NO
316.1            0          0          0          NO
317.1            0          0          0          NO
22               0          0          0          NO
319.1            0          0          0          NO
320.1            0          0          0          NO
321.1            0          0          0          NO
23d              0          0          0          NO
23               0          0          0          NO
324.1            0          0          0          NO
325.1            0          0          0          NO
326.1            0          0          0          NO
24               0          0          0          NO
328.1            0          0          0          NO
329.1            0          0          0          NO
25               0          0          0          NO
26a              0          0          0          NO
26b              0          0          0          NO
26c              0          0          0          NO
26               0          0          0          NO
335.1            0          0          0          NO
27               0          0          0          NO
28a              0          0          0          NO
28b              0          0          0          NO
28c              0          0          0          NO
28d              0          0          0          NO
28e              0          0          0          NO
28f              0          0          0          NO
28               0          0          0          NO
344.1            0          0          0          NO
345.1            0          0          0          NO
346.1            0          0          0          NO
29               0          0          0          NO
348.1            0          0          0          NO
349.1            0          0          0          NO
30               0          0          0          NO
31               0          0          0          NO
32a              0          0          0          NO
32b              0          0          0          NO
32c              0          0          0          NO
32d              0          0          0          NO
32e              0          0          0          NO
32f              0          0          0          NO
32               0          0          0          NO
359.1            0          0          0          NO
360.1            0          0          0          NO
33               0          0          0          NO

[COORDINATES]
;;Node           X-Coord            Y-Coord
;;-------------- ------------------ ------------------
19a.1            498.45             0.66              
19b.1            498.49             0.65              
19c.1            498.60             0.66              
19d.1            498.63             0.57              
19e.1            498.63             0.47              
19f.1            498.63             0.44              
19g.1            498.57             0.31              
19g-1.1          498.54             0.15              
19h.1            498.67             0.43              
19i.1            498.65             0.29              
19j.1            498.61             0.29              
19k.1            498.61             0.26              
19l.1            498.60             0.22              
19.1             498.59             0.13              
20a.1            498.67             0.20              
20b.1            498.67             0.13              
20c.1            498.63             0.14              
20d.1            498.62             0.08              
20e.1            498.58             0.02              
20.1             498.56             0.04              
21a.1            498.48             0.80              
21b.1            498.43             0.71              
21c.1            498.41             0.66              
21d.1            498.40             0.56              
21e.1            498.39             0.44              
21f.1            498.37             0.27              
21g.1            498.44             0.27              
21h.1            498.41             0.18              
21i.1            498.44             0.17              
21j.1            498.43             0.07              
21k.1            498.46             0.06              
21l.1            498.53             0.02              
21.1             498.54             -0.00             
22a.1            498.36             0.17              
22b.1            498.33             0.05              
22c.1            498.42             0.04              
22.1             498.51             -0.01             
23a.1            498.39             -0.03             
23b.1            498.44             -0.05             
23c.1            498.46             -0.06             
23d.1            498.49             -0.05             
23.1             498.51             -0.05             
24a.1            498.47             -0.07             
24b.1            498.49             -0.12             
24c.1            498.52             -0.12             
24.1             498.55             -0.10             
25a.1            498.57             0.00              
25b.1            498.60             -0.13             
25.1             498.58             -0.15             
26a.1            498.68             -0.04             
26b.1            498.76             -0.17             
26c.1            498.66             -0.21             
26.1             498.63             -0.22             
27a.1            498.60             -0.26             
27.1             498.64             -0.26             
28a.1            498.33             0.02              
28b.1            498.33             -0.16             
28c.1            498.47             -0.23             
28d.1            498.56             -0.27             
28e.1            498.57             -0.30             
28f.1            498.60             -0.36             
28.1             498.64             -0.43             
29a.1            498.68             -0.37             
29b.1            498.72             -0.50             
29c.1            498.69             -0.49             
29.1             498.65             -0.47             
30a.1            498.49             -0.41             
30b.1            498.46             -0.46             
30.1             498.64             -0.51             
31.1             498.64             -0.53             
32a.1            498.34             -0.30             
32b.1            498.43             -0.43             
32c.1            498.44             -0.46             
32d.1            498.42             -0.51             
32e.1            498.41             -0.55             
32f.1            498.50             -0.58             
32.1             498.62             -0.60             
33a.1            498.49             -0.58             
33a-1.1          498.48             -0.64             
33.1             498.62             -0.65             
OUT              498.68             -0.72             

[MAP]
DIMENSIONS 498.33 -0.72 498.76 0.80
Units      None

[REPORT]
INPUT            YES
SUBCATCHMENTS    ALL
NODES            ALL
LINKS            ALL



