;; SWMM5 .inp converted from XPSWMM .xp file
;; Generated by XPSWMM Card Reader
;; Source format: XP_CARD | Original title: hakken 30-100

[TITLE]
;;Project Title/Notes
hakken 30-100

[OPTIONS]
FLOW_UNITS           CMS
INFILTRATION         HORTON
FLOW_ROUTING         DYNWAVE
LINK_OFFSETS         DEPTH
MIN_SLOPE            0.0
ALLOW_PONDING        NO
SKIP_STEADY_STATE    NO
ROUTING_STEP         00:00:04
VARIABLE_STEP        0.75
INERTIAL_DAMPING     PARTIAL
NORMAL_FLOW_LIMITED  BOTH
MAX_TRIALS           50
HEAD_TOLERANCE       .001

[JUNCTIONS]
;;Name           Elev       MaxDepth   InitDepth  SurDepth   Aponded
;;-------------- ---------- ---------- ---------- ---------- ----------
4-1              1.98       0          0          0          0
5-1              1.87       0          0          0          0
6-1              1.83       0          0          0          0
7-1              1.84       0          0          0          0
8-1              1.76       0          0          0          0
9-1              1.72       0          0          0          0
10-1             2.11       0          0          0          0
11-1             2.73       0          0          0          0
12-1             2.16       0          0          0          0
264-1            1.90       0          0          0          0
222-1            1.80       0          0          0          0
220-1            1.84       0          0          0          0
261-1            1.68       0          0          0          0
267-1            1.80       0          0          0          0
219-1            2.15       0          0          0          0
218-1            1.88       0          0          0          0
229-1            1.78       0          0          0          0
227-1            1.85       0          0          0          0
263-1            1.74       0          0          0          0
262-1            1.93       0          0          0          0
266-1            1.93       0          0          0          0
270-1            2.07       0          0          0          0
269-1            2.51       0          0          0          0
268-1            1.67       0          0          0          0
226-1            1.84       0          0          0          0
228-1            1.68       0          0          0          0
630              1.87       0          0          0          0
265-1            2.59       0          0          0          0
259-1            2.23       0          0          0          0
231-1            1.69       0          0          0          0
230-1            1.74       0          0          0          0
260-1            1.62       0          0          0          0
221-1            1.89       0          0          0          0
215-1            1.96       0          0          0          0
223-1            1.84       0          0          0          0
225-1            1.83       0          0          0          0
224-1            1.84       0          0          0          0
234-1            1.76       0          0          0          0
233-1            1.65       0          0          0          0
232-1            1.67       0          0          0          0
216-1            1.98       0          0          0          0

[CONDUITS]
;;Name           From             To               Length     Roughness  InOffset   OutOffset  InitFlow   MaxFlow
;;-------------- ---------------- ---------------- ---------- ---------- ---------- ---------- ---------- ----------
4                4-1              5-1              24.00      0.0130     -3.53      -3.55      0          0
5                5-1              6-1              34.00      0.0130     -3.57      -3.59      0          0
6                6-1              7-1              25.00      0.0130     -3.61      -3.63      0          0
7                7-1              8-1              28.00      0.0130     -3.65      -3.67      0          0
8                8-1              9-1              37.00      0.0130     -3.69      -3.72      0          0
9                9-1              10-1             56.00      0.0130     -4.02      -4.06      0          0
10               10-1             11-1             28.00      0.0130     -4.08      -4.10      0          0
11               11-1             12-1             277.00     0.0130     -4.12      -4.31      0          0
264              264-1            9-1              117.00     0.0130     -0.40      -0.58      0          0
222              222-1            5-1              6.00       0.0130     -0.40      -0.41      0          0
220              220-1            222-1            33.00      0.0130     -0.23      -0.30      0          0
261              261-1            9-1              5.00       0.0130     -1.84      -1.84      0          0
219              219-1            220-1            56.00      0.0130     0.53       0.31       0          0
269              269-1            270-1            22.00      0.0130     0.69       0.59       0          0
268              268-1            270-1            49.00      0.0130     0.19       -0.03      0          0
218              218-1            220-1            9.00       0.0130     -0.11      -0.13      0          0
12               12-1             630              13.00      0.0130     -4.33      -4.34      0          0
270              270-1            10-1             5.00       0.0130     -0.48      -0.49      0          0
267              267-1            270-1            55.00      0.0130     -0.07      -0.17      0          0
265              265-1            266-1            43.00      0.0130     0.35       0.24       0          0
262              262-1            264-1            62.00      0.0130     0.29       0.11       0          0
263              263-1            264-1            58.00      0.0130     0.16       -0.04      0          0
266              266-1            267-1            60.00      0.0130     0.06       -0.05      0          0
259              259-1            261-1            72.00      0.0130     0.35       0.10       0          0
227              227-1            229-1            50.00      0.0130     0.27       0.09       0          0
228              228-1            229-1            57.00      0.0130     0.15       -0.08      0          0
229              229-1            231-1            26.00      0.0130     -0.38      -0.43      0          0
226              226-1            229-1            60.00      0.0130     0.31       0.07       0          0
230              230-1            231-1            56.00      0.0130     0.26       0.01       0          0
260              260-1            261-1            53.00      0.0130     0.14       -0.10      0          0
221              221-1            222-1            51.00      0.0130     0.41       0.18       0          0
223              223-1            225-1            26.00      0.0130     0.36       0.24       0          0
224              224-1            225-1            7.00       0.0130     0.36       0.33       0          0
225              225-1            6-1              5.00       0.0130     0.23       0.20       0          0
234              234-1            7-1              6.00       0.0130     0.06       0.03       0          0
233              233-1            234-1            21.00      0.0130     0.17       0.08       0          0
231              231-1            7-1              4.00       0.0130     -0.45      -0.46      0          0
232              232-1            234-1            23.00      0.0130     0.19       0.09       0          0
216              216-1            4-1              4.00       0.0130     0.30       0.28       0          0
215              215-1            216-1            17.00      0.0130     0.48       0.41       0          0

[XSECTIONS]
;;Link           Shape        Geom1      Geom2      Geom3      Geom4      Barrels
;;-------------- ------------ ---------- ---------- ---------- ---------- ----------
4                CIRCULAR     2.50       0          0          0          1
5                CIRCULAR     2.50       0          0          0          1
6                CIRCULAR     2.50       0          0          0          1
7                CIRCULAR     2.50       0          0          0          1
8                CIRCULAR     2.50       0          0          0          1
9                CIRCULAR     2.80       0          0          0          1
10               CIRCULAR     2.80       0          0          0          1
11               CIRCULAR     2.70       0          0          0          1
264              CIRCULAR     0.70       0          0          0          1
222              CIRCULAR     0.70       0          0          0          1
220              CIRCULAR     0.60       0          0          0          1
261              CIRCULAR     1.65       0          0          0          1
219              CIRCULAR     0.30       0          0          0          1
269              CIRCULAR     0.25       0          0          0          1
268              CIRCULAR     0.25       0          0          0          1
218              CIRCULAR     0.50       0          0          0          1
12               CIRCULAR     2.70       0          0          0          1
270              CIRCULAR     0.70       0          0          0          1
267              CIRCULAR     0.60       0          0          0          1
265              CIRCULAR     0.45       0          0          0          1
262              CIRCULAR     0.40       0          0          0          1
263              CIRCULAR     0.35       0          0          0          1
266              CIRCULAR     0.60       0          0          0          1
259              CIRCULAR     0.35       0          0          0          1
227              CIRCULAR     0.35       0          0          0          1
228              CIRCULAR     0.30       0          0          0          1
229              CIRCULAR     0.60       0          0          0          1
226              CIRCULAR     0.30       0          0          0          1
230              CIRCULAR     0.25       0          0          0          1
260              CIRCULAR     0.25       0          0          0          1
221              CIRCULAR     0.25       0          0          0          1
223              CIRCULAR     0.25       0          0          0          1
224              CIRCULAR     0.25       0          0          0          1
225              CIRCULAR     0.25       0          0          0          1
234              CIRCULAR     0.25       0          0          0          1
233              CIRCULAR     0.25       0          0          0          1
231              CIRCULAR     0.60       0          0          0          1
232              CIRCULAR     0.25       0          0          0          1
216              CIRCULAR     0.30       0          0          0          1
215              CIRCULAR     0.25       0          0          0          1

[LOSSES]
;;Link           Inlet      Outlet     Average    Flap Gate
;;-------------- ---------- ---------- ---------- ----------
4                0          0          0          NO
5                0          0          0          NO
6                0          0          0          NO
7                0          0          0          NO
8                0          0          0          NO
9                0          0          0          NO
10               0          0          0          NO
11               0          0          0          NO
264              0          0          0          NO
222              0          0          0          NO
220              0          0          0          NO
261              0          0          0          NO
219              0          0          0          NO
269              0          0          0          NO
268              0          0          0          NO
218              0          0          0          NO
12               0          0          0          NO
270              0          0          0          NO
267              0          0          0          NO
265              0          0          0          NO
262              0          0          0          NO
263              0          0          0          NO
266              0          0          0          NO
259              0          0          0          NO
227              0          0          0          NO
228              0          0          0          NO
229              0          0          0          NO
226              0          0          0          NO
230              0          0          0          NO
260              0          0          0          NO
221              0          0          0          NO
223              0          0          0          NO
224              0          0          0          NO
225              0          0          0          NO
234              0          0          0          NO
233              0          0          0          NO
231              0          0          0          NO
232              0          0          0          NO
216              0          0          0          NO
215              0          0          0          NO

[COORDINATES]
;;Node           X-Coord            Y-Coord
;;-------------- ------------------ ------------------
4-1              130.01             599.29            
5-1              135.54             636.72            
6-1              141.47             669.56            
7-1              154.92             728.61            
8-1              157.86             770.86            
9-1              160.75             821.43            
10-1             168.18             895.57            
11-1             172.11             945.96            
12-1             194.84             1153.74           
264-1            254.78             815.02            
222-1            108.33             639.86            
220-1            66.07              643.42            
261-1            134.21             822.20            
267-1            229.35             889.73            
219-1            49.16              582.07            
218-1            16.12              652.75            
229-1            93.13              733.56            
227-1            26.83              739.97            
263-1            250.81             775.81            
262-1            263.50             867.37            
266-1            263.59             886.72            
270-1            192.32             891.85            
269-1            196.58             934.52            
268-1            187.33             865.30            
226-1            78.47              657.90            
228-1            116.90             808.34            
630              220.80             1189.45           
265-1            270.42             934.83            
259-1            138.47             873.28            
231-1            132.90             729.52            
230-1            122.91             688.03            
260-1            133.34             779.70            
221-1            93.89              577.31            
215-1            163.86             625.09            
223-1            159.35             637.09            
225-1            166.23             668.55            
224-1            171.92             690.58            
234-1            181.89             729.52            
233-1            186.63             762.16            
232-1            171.92             700.14            
216-1            158.03             594.71            

[MAP]
DIMENSIONS 16.12 577.31 270.42 1189.45
Units      None

[REPORT]
INPUT            YES
SUBCATCHMENTS    ALL
NODES            ALL
LINKS            ALL



