;; SWMM5 .inp converted from XPSWMM .xp file
;; Generated by XPSWMM Card Reader
;; Source format: XP_CARD | Original title: (none)

[TITLE]
;;Project Title/Notes
Converted from XPSWMM .xp file

[OPTIONS]
FLOW_UNITS           CFS
INFILTRATION         HORTON
FLOW_ROUTING         DYNWAVE
LINK_OFFSETS         DEPTH
MIN_SLOPE            0.0
ALLOW_PONDING        NO
SKIP_STEADY_STATE    NO
ROUTING_STEP         00:00:60
VARIABLE_STEP        0.75
INERTIAL_DAMPING     PARTIAL
NORMAL_FLOW_LIMITED  BOTH

[JUNCTIONS]
;;Name           Elev       MaxDepth   InitDepth  SurDepth   Aponded
;;-------------- ---------- ---------- ---------- ---------- ----------
0                7.18       0          0          0          0
0                80.14      0          0          0          0
0                80.36      0          0          0          0
0                80.11      0          0          0          0
0                81.61      0          0          0          0
0                81.00      0          0          0          0
0                80.68      0          0          0          0
0                80.31      0          0          0          0
0                80.24      0          0          0          0
0                80.62      0          0          0          0
0                80.02      0          0          0          0
0                80.22      0          0          0          0
0                81.71      0          0          0          0
0                82.48      0          0          0          0
0                79.74      0          0          0          0
0                81.76      0          0          0          0
0                81.76      0          0          0          0
0                81.37      0          0          0          0
0                80.52      0          0          0          0
0                76.62      0          0          0          0
0                72.73      0          0          0          0
0                73.37      0          0          0          0
0                72.81      0          0          0          0
0                69.97      0          0          0          0
0                66.64      0          0          0          0
0                66.98      0          0          0          0
0                66.85      0          0          0          0
0                66.45      0          0          0          0
0                65.00      0          0          0          0
0                64.41      0          0          0          0
0                65.65      0          0          0          0
0                61.00      0          0          0          0

[CONDUITS]
;;Name           From             To               Length     Roughness  InOffset   OutOffset  InitFlow   MaxFlow
;;-------------- ---------------- ---------------- ---------- ---------- ---------- ---------- ---------- ----------
201              0                0                371.00     0          0          72.96      0          0
202              0                0                371.00     0          72.96      71.47      0          0
203              0                0                95.00      0          71.47      71.09      0          0
204              0                0                234.00     0          71.09      72.59      0          0
205              0                0                175.00     0          72.59      72.17      0          0
206              0                0                875.00     0          72.17      70.08      0          0
207              0                0                871.00     0          70.08      69.47      0          0
208              0                0                105.00     0          69.47      69.40      0          0
209              0                0                24.00      0          69.40      70.31      0          0
210              0                0                105.00     0          70.31      70.03      0          0
211              0                0                494.00     0          70.03      68.74      0          0
212              0                0                1230.00    0          68.74      68.64      0          0
213              0                0                617.00     0          68.64      65.81      0          0
214              0                0                919.00     0          65.81      61.02      0          0
215              0                0                100.00     0          61.02      60.50      0          0
216              0                0                61.00      0          60.50      60.50      0          0
217              0                0                102.00     0          60.50      60.11      0          0
218              0                0                465.00     0          60.11      58.32      0          0
219              0                0                862.00     0          58.32      54.42      0          0
220              0                0                108.00     0          54.42      53.93      0          0
221              0                0                61.00      0          53.93      53.77      0          0
222              0                0                102.00     0          53.77      53.21      0          0
223              0                0                124.00     0          53.21      52.54      0          0
224              0                0                133.00     0          52.54      51.09      0          0
225              0                0                133.00     0          51.09      49.64      0          0
226              0                0                133.00     0          49.64      48.20      0          0
227              0                0                133.00     0          48.20      46.75      0          0
228              0                0                133.00     0          46.75      45.30      0          0
229              0                0                126.00     0          45.30      44.96      0          0
230              0                0                33.00      0          44.96      45.19      0          0
231              0                0                130.37     0          43.59      40.10      0          0

[XSECTIONS]
;;Link           Shape        Geom1      Geom2      Geom3      Geom4      Barrels
;;-------------- ------------ ---------- ---------- ---------- ---------- ----------
201              IRREGULAR    0          0          0          0          1
202              IRREGULAR    0          0          0          0          1
203              IRREGULAR    0          0          0          0          1
204              IRREGULAR    0          0          0          0          1
205              IRREGULAR    0          0          0          0          1
206              IRREGULAR    0          0          0          0          1
207              IRREGULAR    0          0          0          0          1
208              IRREGULAR    0          0          0          0          1
209              IRREGULAR    0          0          0          0          1
210              IRREGULAR    0          0          0          0          1
211              IRREGULAR    0          0          0          0          1
212              IRREGULAR    0          0          0          0          1
213              IRREGULAR    0          0          0          0          1
214              IRREGULAR    0          0          0          0          1
215              IRREGULAR    0          0          0          0          1
216              IRREGULAR    0          0          0          0          1
217              IRREGULAR    0          0          0          0          1
218              IRREGULAR    0          0          0          0          1
219              IRREGULAR    0          0          0          0          1
220              IRREGULAR    0          0          0          0          1
221              IRREGULAR    0          0          0          0          1
222              IRREGULAR    0          0          0          0          1
223              IRREGULAR    0          0          0          0          1
224              IRREGULAR    0          0          0          0          1
225              IRREGULAR    0          0          0          0          1
226              IRREGULAR    0          0          0          0          1
227              IRREGULAR    0          0          0          0          1
228              IRREGULAR    0          0          0          0          1
229              IRREGULAR    0          0          0          0          1
230              IRREGULAR    0          0          0          0          1
231              IRREGULAR    0          0          0          0          1

[LOSSES]
;;Link           Inlet      Outlet     Average    Flap Gate
;;-------------- ---------- ---------- ---------- ----------
201              0          0          0          NO
202              0          0          0          NO
203              0          0          0          NO
204              0          0          0          NO
205              0          0          0          NO
206              0          0          0          NO
207              0          0          0          NO
208              0          0          0          NO
209              0          0          0          NO
210              0          0          0          NO
211              0          0          0          NO
212              0          0          0          NO
213              0          0          0          NO
214              0          0          0          NO
215              0          0          0          NO
216              0          0          0          NO
217              0          0          0          NO
218              0          0          0          NO
219              0          0          0          NO
220              0          0          0          NO
221              0          0          0          NO
222              0          0          0          NO
223              0          0          0          NO
224              0          0          0          NO
225              0          0          0          NO
226              0          0          0          NO
227              0          0          0          NO
228              0          0          0          NO
229              0          0          0          NO
230              0          0          0          NO
231              0          0          0          NO

[COORDINATES]
;;Node           X-Coord            Y-Coord
;;-------------- ------------------ ------------------
0                -13869835.01       3100418.83        
0                -13869814.34       3100418.88        
0                -13869447.09       3100401.11        
0                -13869357.13       3100371.53        
0                -13869164.24       3100258.51        
0                -13869156.14       3100082.77        
0                -13869131.97       3099207.88        
0                -13869102.43       3098338.48        
0                -13869097.22       3098233.18        
0                -13869095.34       3098209.18        
0                -13869094.34       3098104.42        
0                -13869082.81       3097611.97        
0                -13869040.29       3096383.63        
0                -13869016.19       3095767.47        
0                -13868991.60       3094847.94        
0                -13868988.91       3094749.11        
0                -13868985.93       3094687.54        
0                -13868977.87       3094586.41        
0                -13868963.50       3094122.23        
0                -13868933.76       3093262.84        
0                -13868926.53       3093161.62        
0                -13868923.87       3093087.74        
0                -13868920.31       3092992.36        
0                -13868921.38       3092869.29        
0                -13868921.55       3092744.61        
0                -13868913.86       3092617.91        
0                -13868907.22       3092487.34        
0                -13868878.88       3092352.30        
0                -13868765.10       3092290.76        
0                -13868673.48       3092207.38        
0                -13868651.08       3092183.38        
0                -13868574.90       3092077.60        

[MAP]
DIMENSIONS -13869835.01 3092077.60 -13868574.90 3100418.88
Units      None

[REPORT]
INPUT            YES
SUBCATCHMENTS    ALL
NODES            ALL
LINKS            ALL



