;; SWMM5 .inp converted from XPSWMM .xp file
;; Generated by XPSWMM Card Reader
;; Source format: XP_CARD | Original title: "Vallecitos

[TITLE]
;;Project Title/Notes
"Vallecitos

[OPTIONS]
FLOW_UNITS           CFS
INFILTRATION         HORTON
FLOW_ROUTING         DYNWAVE
LINK_OFFSETS         DEPTH
MIN_SLOPE            0.0
ALLOW_PONDING        NO
SKIP_STEADY_STATE    NO
ROUTING_STEP         00:00:10
VARIABLE_STEP        0.75
INERTIAL_DAMPING     NONE
NORMAL_FLOW_LIMITED  BOTH
MAX_TRIALS           30

[JUNCTIONS]
;;Name           Elev       MaxDepth   InitDepth  SurDepth   Aponded
;;-------------- ---------- ---------- ---------- ---------- ----------
2102             564.10     0          0          0          0
2101             560.10     0          0          0          0
2100             561.00     0          0          0          0
2099             560.00     0          0          0          0
2098             558.00     0          0          0          0
2097             558.50     0          0          0          0
2096             556.10     0          0          0          0
165              556.10     0          0          0          0
166              554.00     0          0          0          0
167              552.00     0          0          0          0
56               548.40     0          0          0          0
168              558.40     0          0          0          0
169              551.30     0          0          0          0
170              548.20     0          0          0          0
1322             546.20     0          0          0          0
1321             545.60     0          0          0          0
1320             544.90     0          0          0          0
1319             539.00     0          0          0          0
1318             535.80     0          0          0          0
1317             540.10     0          0          0          0
1340             536.40     0          0          0          0
1315             532.20     0          0          0          0
881              528.50     0          0          0          0
882              525.50     0          0          0          0
880              522.00     0          0          0          0
879              522.40     0          0          0          0
878              524.00     0          0          0          0
416              526.90     0          0          0          0
889              527.50     0          0          0          0
415              514.30     0          0          0          0
414              512.40     0          0          0          0
417              511.90     0          0          0          0
410              518.90     0          0          0          0
409              517.90     0          0          0          0
407              517.50     0          0          0          0
406              516.00     0          0          0          0
405              516.00     0          0          0          0
383              516.00     0          0          0          0
398              516.90     0          0          0          0
394              515.00     0          0          0          0
399              518.50     0          0          0          0
902              520.50     0          0          0          0
903              515.50     0          0          0          0
904              523.10     0          0          0          0
905              532.40     0          0          0          0
1021             476.20     0          0          0          0
1022             484.70     0          0          0          0
1568             700.40     0          0          0          0
1567             687.00     0          0          0          0
1566             682.00     0          0          0          0
1545             679.00     0          0          0          0
1541             673.00     0          0          0          0
1539             674.00     0          0          0          0
1524             671.00     0          0          0          0
1540             670.00     0          0          0          0
1852             662.00     0          0          0          0
1865             662.00     0          0          0          0
1864             657.50     0          0          0          0
1863             651.00     0          0          0          0
1862             651.50     0          0          0          0
1861             643.50     0          0          0          0
1860             640.00     0          0          0          0
1859             634.00     0          0          0          0
1875             634.00     0          0          0          0
1858             632.00     0          0          0          0
1857             631.00     0          0          0          0
1856             628.00     0          0          0          0
1855             627.00     0          0          0          0
1878             624.00     0          0          0          0
1854             626.00     0          0          0          0
1981             621.00     0          0          0          0
1982             620.50     0          0          0          0
1983             617.00     0          0          0          0
1994             617.00     0          0          0          0
1984             615.00     0          0          0          0
1985             612.00     0          0          0          0
1986             611.00     0          0          0          0
1987             608.00     0          0          0          0
2024             604.00     0          0          0          0
2025             600.00     0          0          0          0
2023             599.00     0          0          0          0
2022             595.00     0          0          0          0
2021             592.00     0          0          0          0
2010             591.40     0          0          0          0
2009             589.00     0          0          0          0
2008             588.00     0          0          0          0
2007             582.00     0          0          0          0
2006             581.00     0          0          0          0
2044             580.00     0          0          0          0
2047             580.00     0          0          0          0
2048             580.00     0          0          0          0
2049             584.00     0          0          0          0
2050             582.00     0          0          0          0
2051             582.00     0          0          0          0
2052             580.00     0          0          0          0
2053             579.50     0          0          0          0
2054             578.50     0          0          0          0
2055             580.60     0          0          0          0
2056             580.00     0          0          0          0
2057             582.00     0          0          0          0
2061             582.00     0          0          0          0
2062             582.00     0          0          0          0
2063             582.00     0          0          0          0
2064             578.50     0          0          0          0
3158             771.70     0          0          0          0
3159             760.40     0          0          0          0
3160             755.60     0          0          0          0
3302             752.00     0          0          0          0
3161             745.40     0          0          0          0
2377             729.60     0          0          0          0
2376             716.00     0          0          0          0
2434             702.00     0          0          0          0
2433             694.40     0          0          0          0
2432             689.90     0          0          0          0
2431             686.80     0          0          0          0
2430             675.20     0          0          0          0
2429             673.30     0          0          0          0
2428             666.90     0          0          0          0
2388             663.20     0          0          0          0
2387             661.20     0          0          0          0
2386             658.00     0          0          0          0
2385             655.00     0          0          0          0
2383             653.80     0          0          0          0
1972             653.00     0          0          0          0
1973             653.80     0          0          0          0
1974             653.00     0          0          0          0
1975             651.20     0          0          0          0
1976             648.50     0          0          0          0
1977             642.50     0          0          0          0
1978             635.40     0          0          0          0
1979             628.00     0          0          0          0
1980             628.00     0          0          0          0
3610             625.00     0          0          0          0
1961             628.00     0          0          0          0
1962             626.00     0          0          0          0
1963             621.70     0          0          0          0
1964             621.20     0          0          0          0
1965             623.50     0          0          0          0
1966             620.90     0          0          0          0
1967             616.30     0          0          0          0
1968             614.90     0          0          0          0
2001             656.20     0          0          0          0
2000             653.00     0          0          0          0
9003             649.40     0          0          0          0
1970             611.90     0          0          0          0
1969             611.00     0          0          0          0
2019             607.50     0          0          0          0
2018             607.00     0          0          0          0
2017             603.00     0          0          0          0
2016             600.00     0          0          0          0
2015             599.00     0          0          0          0
2014             595.60     0          0          0          0
2013             595.50     0          0          0          0
2012             594.00     0          0          0          0
2011             593.00     0          0          0          0
2539             637.00     0          0          0          0
2618             636.50     0          0          0          0
2596             635.50     0          0          0          0
3600             633.00     0          0          0          0
2594             634.00     0          0          0          0
2595             627.00     0          0          0          0
2678             635.50     0          0          0          0
2600             635.00     0          0          0          0
2599             638.50     0          0          0          0
2598             627.00     0          0          0          0
2602             619.50     0          0          0          0
2638             617.00     0          0          0          0
2603             613.50     0          0          0          0
2604             610.00     0          0          0          0
2605             610.50     0          0          0          0
2606             605.50     0          0          0          0
2607             601.00     0          0          0          0
3598             599.00     0          0          0          0
2608             600.00     0          0          0          0
2609             599.00     0          0          0          0
2106             598.00     0          0          0          0
2105             591.00     0          0          0          0
2113             587.60     0          0          0          0
2104             581.00     0          0          0          0
2107             580.00     0          0          0          0
2103             576.50     0          0          0          0
2038             575.50     0          0          0          0
2039             574.50     0          0          0          0
2040             572.00     0          0          0          0
2041             571.00     0          0          0          0
2082             571.50     0          0          0          0
2042             570.00     0          0          0          0
2058             570.00     0          0          0          0
2059             570.00     0          0          0          0
2060             571.00     0          0          0          0
2761             617.00     0          0          0          0
2760             615.00     0          0          0          0
2759             614.00     0          0          0          0
2758             613.00     0          0          0          0
2757             609.00     0          0          0          0
2756             606.00     0          0          0          0
2746             602.00     0          0          0          0
2747             600.40     0          0          0          0
2745             593.50     0          0          0          0
2744             588.80     0          0          0          0
2109             587.50     0          0          0          0
2108             585.30     0          0          0          0
3383             776.70     0          0          0          0
3382             772.00     0          0          0          0
3381             770.00     0          0          0          0
3379             763.80     0          0          0          0
3378             759.70     0          0          0          0
3377             753.00     0          0          0          0
3376             747.80     0          0          0          0
3375             742.50     0          0          0          0
3374             742.20     0          0          0          0
3358             740.90     0          0          0          0
3357             739.20     0          0          0          0
3356             739.00     0          0          0          0
3355             736.50     0          0          0          0
3354             732.00     0          0          0          0
3353             729.50     0          0          0          0
3352             726.00     0          0          0          0
3351             724.80     0          0          0          0
3350             724.70     0          0          0          0
3349             724.50     0          0          0          0
3348             723.40     0          0          0          0
3347             720.80     0          0          0          0
3346             720.50     0          0          0          0
3345             721.20     0          0          0          0
3344             716.00     0          0          0          0
3343             711.00     0          0          0          0
3342             709.70     0          0          0          0
3341             708.20     0          0          0          0
3310             700.80     0          0          0          0
3288             697.50     0          0          0          0
3287             696.50     0          0          0          0
3286             692.20     0          0          0          0
3289             687.50     0          0          0          0
3290             682.50     0          0          0          0
3291             678.60     0          0          0          0
3292             678.00     0          0          0          0
3293             679.50     0          0          0          0
3296             671.00     0          0          0          0
3594             676.60     0          0          0          0
3294             672.00     0          0          0          0
3595             670.00     0          0          0          0
3046             668.10     0          0          0          0
3045             665.50     0          0          0          0
3044             662.00     0          0          0          0
3043             657.00     0          0          0          0
3596             655.80     0          0          0          0
3042             653.00     0          0          0          0
3041             649.00     0          0          0          0
3048             648.00     0          0          0          0
3040             645.20     0          0          0          0
3039             641.00     0          0          0          0
3597             639.50     0          0          0          0
3038             637.50     0          0          0          0
3037             635.50     0          0          0          0
3036             634.00     0          0          0          0
3035             633.00     0          0          0          0
3034             634.00     0          0          0          0
3033             638.00     0          0          0          0
2742             636.50     0          0          0          0
2741             631.00     0          0          0          0
3332             680.30     0          0          0          0
3331             677.20     0          0          0          0
3330             675.90     0          0          0          0
3329             674.00     0          0          0          0
3328             676.80     0          0          0          0
3325             668.70     0          0          0          0
3324             664.00     0          0          0          0
3323             662.40     0          0          0          0
3322             661.10     0          0          0          0
3321             658.60     0          0          0          0
3068             656.80     0          0          0          0
3067             652.50     0          0          0          0
3066             651.80     0          0          0          0
3065             655.80     0          0          0          0
3029             646.60     0          0          0          0
3031             654.00     0          0          0          0
3030             649.40     0          0          0          0
3028             644.00     0          0          0          0
3027             640.40     0          0          0          0
3026             638.00     0          0          0          0
3025             636.50     0          0          0          0
3024             635.20     0          0          0          0
3023             634.00     0          0          0          0
3022             635.80     0          0          0          0
3021             636.70     0          0          0          0
2727             636.60     0          0          0          0
2726             630.40     0          0          0          0
2725             623.80     0          0          0          0
2724             617.60     0          0          0          0
2723             613.60     0          0          0          0
2722             611.00     0          0          0          0
2721             609.30     0          0          0          0
2720             607.00     0          0          0          0
2740             623.50     0          0          0          0
2739             617.50     0          0          0          0
2738             612.00     0          0          0          0
2737             608.30     0          0          0          0
2736             605.20     0          0          0          0
2735             602.00     0          0          0          0
2734             598.10     0          0          0          0
2733             595.00     0          0          0          0
2731             594.50     0          0          0          0
2730             595.50     0          0          0          0
2729             595.50     0          0          0          0
2728             595.50     0          0          0          0
2068             595.10     0          0          0          0
2035             592.50     0          0          0          0
2069             592.50     0          0          0          0
2036             591.00     0          0          0          0
2037             583.00     0          0          0          0
2719             603.20     0          0          0          0
2718             600.20     0          0          0          0
2717             598.20     0          0          0          0
2716             597.00     0          0          0          0
2715             595.00     0          0          0          0
2732             594.20     0          0          0          0
2714             597.50     0          0          0          0
2713             595.80     0          0          0          0
2712             595.00     0          0          0          0
2088             594.10     0          0          0          0
2087             591.10     0          0          0          0
2086             589.60     0          0          0          0
2085             586.00     0          0          0          0
2084             582.00     0          0          0          0
2083             581.00     0          0          0          0
2081             572.80     0          0          0          0
1370             646.50     0          0          0          0
1368             631.80     0          0          0          0
1367             636.00     0          0          0          0
1366             628.30     0          0          0          0
1365             605.00     0          0          0          0
1364             594.60     0          0          0          0
1363             588.80     0          0          0          0
1362             583.80     0          0          0          0
1360             586.80     0          0          0          0
1359             584.80     0          0          0          0
1358             582.40     0          0          0          0
1356             571.70     0          0          0          0
1341             627.00     0          0          0          0
1342             608.50     0          0          0          0
1345             599.10     0          0          0          0
1346             594.60     0          0          0          0
1353             593.70     0          0          0          0
1347             590.30     0          0          0          0
1348             586.60     0          0          0          0
1354             582.80     0          0          0          0
2125             569.30     0          0          0          0
2124             567.70     0          0          0          0
2123             565.80     0          0          0          0
3283             686.60     0          0          0          0
3284             685.60     0          0          0          0
3285             690.10     0          0          0          0
55               554.80     0          0          0          0
54               560.00     0          0          0          0
53               562.10     0          0          0          0
52               562.30     0          0          0          0
51               561.70     0          0          0          0
33               562.30     0          0          0          0
32               560.80     0          0          0          0
31               560.80     0          0          0          0
30               560.80     0          0          0          0
29               558.20     0          0          0          0
28               552.40     0          0          0          0
27               552.80     0          0          0          0
26               552.00     0          0          0          0
25               551.50     0          0          0          0
24               548.00     0          0          0          0
23               550.00     0          0          0          0
22               546.30     0          0          0          0
20               543.00     0          0          0          0
17               544.90     0          0          0          0
19               545.20     0          0          0          0
21               541.40     0          0          0          0
425              539.80     0          0          0          0
424              538.30     0          0          0          0
423              537.20     0          0          0          0
422              534.90     0          0          0          0
421              532.50     0          0          0          0
420              533.00     0          0          0          0
418              528.50     0          0          0          0
419              526.90     0          0          0          0
413              520.50     0          0          0          0
412              514.60     0          0          0          0
411              513.30     0          0          0          0
2956             620.10     0          0          0          0
2952             620.90     0          0          0          0
2953             622.70     0          0          0          0
2954             623.40     0          0          0          0
2955             626.00     0          0          0          0
2957             620.00     0          0          0          0
2971             617.90     0          0          0          0
2975             616.30     0          0          0          0
2974             612.20     0          0          0          0
2973             609.50     0          0          0          0
2972             606.90     0          0          0          0
2890             601.60     0          0          0          0
2889             587.20     0          0          0          0
2886             593.00     0          0          0          0
2884             590.60     0          0          0          0
3032             659.30     0          0          0          0
2882             582.80     0          0          0          0
2881             577.80     0          0          0          0
2879             571.20     0          0          0          0
2878             576.40     0          0          0          0
2877             579.40     0          0          0          0
2876             582.90     0          0          0          0
2875             580.90     0          0          0          0
2269             574.40     0          0          0          0
2268             566.00     0          0          0          0
2266             557.00     0          0          0          0
2267             557.00     0          0          0          0
460              554.00     0          0          0          0
2147             546.80     0          0          0          0
2146             546.40     0          0          0          0
2145             543.70     0          0          0          0
2144             542.30     0          0          0          0
2143             540.50     0          0          0          0
2142             534.80     0          0          0          0
2141             537.80     0          0          0          0
2140             536.00     0          0          0          0
2138             535.00     0          0          0          0
2139             531.60     0          0          0          0
2137             528.10     0          0          0          0
876              522.60     0          0          0          0
875              519.00     0          0          0          0
874              518.00     0          0          0          0
873              517.30     0          0          0          0
872              516.40     0          0          0          0
871              516.00     0          0          0          0
216              581.20     0          0          0          0
549              574.70     0          0          0          0
217              561.20     0          0          0          0
219              513.10     0          0          0          0
779              521.00     0          0          0          0
859              520.00     0          0          0          0
858              515.10     0          0          0          0
856              518.10     0          0          0          0
855              521.60     0          0          0          0
857              516.50     0          0          0          0
847              518.40     0          0          0          0
846              515.00     0          0          0          0
845              518.50     0          0          0          0
844              518.50     0          0          0          0
404              514.00     0          0          0          0
403              512.00     0          0          0          0
402              512.00     0          0          0          0
401              512.00     0          0          0          0
1018             560.00     0          0          0          0
1023             490.50     0          0          0          0
1024             463.50     0          0          0          0
1025             445.80     0          0          0          0
1080             447.20     0          0          0          0
1044             452.00     0          0          0          0
84               566.90     0          0          0          0
83               568.30     0          0          0          0
82               570.30     0          0          0          0
81               568.90     0          0          0          0
80               566.80     0          0          0          0
121              562.00     0          0          0          0
120              558.00     0          0          0          0
119              557.00     0          0          0          0
111              553.80     0          0          0          0
118              551.40     0          0          0          0
117              551.20     0          0          0          0