;; SWMM5 .inp converted from XPSWMM .xp file
;; Generated by XPSWMM Card Reader
;; Source format: XP_CARD | Original title: (none)

[TITLE]
;;Project Title/Notes
Converted from XPSWMM .xp file

[OPTIONS]
FLOW_UNITS           CFS
INFILTRATION         HORTON
FLOW_ROUTING         DYNWAVE
LINK_OFFSETS         DEPTH
MIN_SLOPE            0.0
ALLOW_PONDING        NO
SKIP_STEADY_STATE    NO
ROUTING_STEP         00:00:60
VARIABLE_STEP        0.75
INERTIAL_DAMPING     PARTIAL
NORMAL_FLOW_LIMITED  BOTH
MAX_TRIALS           100

[JUNCTIONS]
;;Name           Elev       MaxDepth   InitDepth  SurDepth   Aponded
;;-------------- ---------- ---------- ---------- ---------- ----------
0                23.00      0          4.00       0          0
0                23.00      0          4.00       0          0
0                24.00      0          5.00       0          0
0                24.00      0          5.00       0          0
0                23.00      0          5.00       0          0
0                22.70      0          1.30       0          0
0                23.70      0          0          0          0
0                23.20      0          5.00       0          0
0                23.20      0          5.00       0          0
0                23.00      0          4.00       0          0
0                23.20      0          4.00       0          0
0                24.00      0          5.00       0          0
0                24.80      0          4.00       0          0
0                23.50      0          5.00       0          0
0                24.50      0          5.00       0          0
0                23.50      0          5.00       0          0
0                23.20      0          5.00       0          0
0                24.50      0          5.00       0          0
0                25.80      0          0          0          0
0                24.50      0          5.00       0          0
0                25.00      0          7.50       0          0
0                26.00      0          0          0          0
0                23.00      0          5.00       0          0
0                23.00      0          5.00       0          0
0                23.00      0          5.00       0          0
0                23.00      0          5.00       0          0
0                23.20      0          5.00       0          0
0                23.00      0          5.00       0          0
0                23.00      0          4.00       0          0
0                24.00      0          4.00       0          0
0                24.80      0          0          0          0
0                23.50      0          5.50       0          0
0                23.50      0          4.00       0          0
0                23.50      0          6.00       0          0
0                23.50      0          4.00       0          0
0                23.50      0          7.00       0          0
0                23.50      0          4.00       0          0
0                23.50      0          6.00       0          0
0                23.50      0          5.00       0          0
0                24.80      0          0          0          0
0                24.00      0          5.50       0          0
0                23.70      0          3.00       0          0
0                23.00      0          5.00       0          0
0                23.20      0          5.00       0          0
0                23.50      0          5.00       0          0
0                23.50      0          6.00       0          0
0                24.50      0          4.00       0          0
0                25.50      0          7.30       0          0
0                24.80      0          1.30       0          0
0                23.50      0          4.00       0          0
0                25.00      0          0          0          0
0                26.00      0          0          0          0
0                22.70      0          1.30       0          0
0                24.80      0          6.00       0          0
0                24.00      0          4.00       0          0

[STORAGE]
;;Name           Elev       MaxDepth   InitDepth  Shape      Curve/Params
;;-------------- ---------- ---------- ---------- ---------- ----------
0                26.30      0          5.50       FUNCTIONAL 43560.00 0          0

[CONDUITS]
;;Name           From             To               Length     Roughness  InOffset   OutOffset  InitFlow   MaxFlow
;;-------------- ---------------- ---------------- ---------- ---------- ---------- ---------- ---------- ----------
207              0                0                190.00     0.0130     15.50      15.50      0          0
208              0                0                220.00     0.0130     15.50      15.50      0          0
371              0                0                240.00     0.0130     14.50      14.50      0          0
216              0                0                380.00     0.0130     15.00      15.00      0          0
285              0                0                500.00     0.0130     14.50      14.50      0          0
375              0                0                80.00      0.0130     15.70      15.70      0          0
302              0                0                390.00     0.0130     14.50      14.50      0          0
230              0                0                500.00     0.0130     14.70      14.70      0          0
233              0                0                135.00     0.0130     19.70      15.70      0          0
239              0                0                400.00     0.0130     15.00      15.00      0          0
244              0                0                570.00     0.0130     15.00      15.00      0          0
246              0                0                770.00     0.0130     16.00      16.00      0          0
250              0                0                930.00     0.0130     14.70      14.70      0          0
409              0                0                230.00     0.0130     17.00      17.00      0          0
343              0                0                500.00     0.0130     14.00      14.00      0          0
327              0                0                175.00     0.0130     14.00      14.00      0          0
252              0                0                440.00     0.0130     16.00      16.00      0          0
405              0                0                330.00     0.0130     14.00      14.00      0          0
248              0                0                460.00     0.0130     15.00      15.00      0          0
416              0                0                200.00     0.0130     15.00      15.00      0          0
290              0                0                1160.00    0.0130     14.50      14.50      0          0
297              0                0                360.00     0.0130     14.50      14.50      0          0
301              0                0                620.00     0.0130     14.70      14.70      0          0
395              0                0                320.00     0.0130     14.50      14.50      0          0
232              0                0                260.00     0.0130     15.50      15.50      0          0
308              0                0                325.00     0.0130     15.50      15.50      0          0
241              0                0                70.00      0.0130     16.50      16.50      0          0
399              0                0                830.00     0.0130     15.00      15.00      0          0
321              0                0                430.00     0.0130     14.50      14.50      0          0
328              0                0                445.00     0.0130     16.00      16.00      0          0
345              0                0                445.00     0.0130     15.00      15.00      0          0
331              0                0                60.00      0.0120     18.00      18.00      0          0
341              0                0                420.00     0.0130     16.00      16.00      0          0
447              0                0                475.00     0.0130     17.00      17.00      0          0
296              0                0                230.00     0.0130     14.50      14.50      0          0
381.1            0                0                155.00     0.0130     14.50      14.50      0          0
451              0                0                115.00     0.0130     16.00      16.00      0          0
250              0                0                0          0          0          0          0          0
425              0                0                0          0          0          0          0          0
428              0                0                50.00      0.0130     16.00      16.00      0          0

[WEIRS]
;;Name           From             To               Type       CrestHt    Qcoeff     Gated    EndCon   EndCoeff   Surcharge
;;-------------- ---------------- ---------------- ---------- ---------- ---------- -------- -------- ---------- ----------
weir             notch            0                TRANSVERSE 19.80      1.840      NO       0        0          YES
Weir             Notch            0                TRANSVERSE 20.35      1.840      NO       0        0          YES
319              0                0                TRANSVERSE 21.30      1.840      NO       0        0          YES
Notch            Weir             0                TRANSVERSE 20.25      1.840      NO       0        0          YES
226              0                0                TRANSVERSE 19.70      1.840      NO       0        0          YES
Weir             Notch            0                TRANSVERSE 20.60      1.840      NO       0        0          YES
Weir             Notch            0                TRANSVERSE 21.60      1.840      NO       0        0          YES
253              0                0                TRANSVERSE 22.30      1.840      NO       0        0          YES
270              0                0                TRANSVERSE 21.50      1.840      NO       0        0          YES
432              0                0                TRANSVERSE 21.00      1.840      NO       0        0          YES
rcp              0                0                TRANSVERSE 21.00      1.840      NO       0        0          YES
Weir             Notch            0                TRANSVERSE 20.35      1.840      NO       0        0          YES
weir             notch            0                TRANSVERSE 19.30      1.840      NO       0        0          YES
Weir             0                0                TRANSVERSE 21.30      1.840      NO       0        0          YES
Weir             Notch            0                TRANSVERSE 22.00      1.840      NO       0        0          YES

[XSECTIONS]
;;Link           Shape        Geom1      Geom2      Geom3      Geom4      Barrels
;;-------------- ------------ ---------- ---------- ---------- ---------- ----------
207              CIRCULAR     2.00       2.00       0          0          1
208              CIRCULAR     2.00       2.00       0          0          1
371              CIRCULAR     3.00       2.00       0          0          1
216              CIRCULAR     3.00       2.00       0          0          1
285              CIRCULAR     3.00       10.00      0          0          1
375              CIRCULAR     2.00       2.00       0          0          1
302              CIRCULAR     3.00       2.00       0          0          1
230              CIRCULAR     3.00       4.00       0          0          1
233              CIRCULAR     1.50       2.00       0          0          1
239              CIRCULAR     3.00       2.00       0          0          1
244              CIRCULAR     3.00       2.00       0          0          1
246              CIRCULAR     3.00       2.00       0          0          1
250              CIRCULAR     3.00       2.00       0          0          1
409              CIRCULAR     2.00       2.00       0          0          1
343              CIRCULAR     4.00       2.00       0          0          1
327              CIRCULAR     4.00       2.00       0          0          1
252              CIRCULAR     3.00       2.00       0          0          1
405              CIRCULAR     4.00       2.00       0          0          1
248              CIRCULAR     3.00       2.00       0          0          1
416              RECT_CLOSED  3.00       6.00       0          0          2
290              CIRCULAR     3.00       10.00      0          0          1
297              CIRCULAR     3.00       2.00       0          0          1
301              CIRCULAR     3.00       2.00       0          0          1
395              CIRCULAR     3.00       2.00       0          0          1
232              CIRCULAR     2.00       2.00       0          0          1
308              CIRCULAR     2.00       2.00       0          0          1
241              CIRCULAR     2.00       2.00       0          0          1
399              CIRCULAR     3.00       2.00       0          0          1
321              CIRCULAR     3.50       2.00       0          0          1
328              CIRCULAR     2.00       2.00       0          0          1
345              CIRCULAR     3.00       2.00       0          0          1
331              HORSESHOE    3.00       24.00      0          0          2
341              CIRCULAR     2.00       2.00       0          0          1
447              CIRCULAR     2.00       2.00       0          0          1
296              CIRCULAR     3.00       2.00       0          0          1
381.1            CIRCULAR     3.00       4.00       0          0          1
451              CIRCULAR     2.00       2.00       0          0          1
250              CIRCULAR     0          0          0          0          1
425              CIRCULAR     0          0          0          0          1
428              CIRCULAR     2.00       0          0          0          1
weir             RECT_OPEN    0          3.00       0          0          
Weir             RECT_OPEN    0          25.00      0          0          
319              RECT_OPEN    0          2.00       0          0          
Notch            RECT_OPEN    0          2.00       0          0          
226              RECT_OPEN    0          1.50       0          0          
Weir             RECT_OPEN    0          2.00       0          0          
Weir             RECT_OPEN    0          2.00       0          0          
253              RECT_OPEN    0          2.50       0          0          
270              RECT_OPEN    0          6.00       0          0          
432              RECT_OPEN    0          20.00      0          0          
rcp              RECT_OPEN    0          20.00      0          0          
Weir             RECT_OPEN    0          25.00      0          0          
weir             RECT_OPEN    0          2.00       0          0          
Weir             RECT_OPEN    0          2.50       0          0          
Weir             RECT_OPEN    0          2.00       0          0          

[LOSSES]
;;Link           Inlet      Outlet     Average    Flap Gate
;;-------------- ---------- ---------- ---------- ----------
207              0          0          0          NO
208              0          0          0          NO
371              0          0          0          NO
216              0          0          0          NO
285              0          0          0          NO
375              0          0          0          NO
302              0          0          0          NO
230              0          0          0          NO
233              0          0          0          NO
239              0          0          0          NO
244              0          0          0          NO
246              0          0          0          NO
250              0          0          0          NO
409              0          0          0          NO
343              0          0          0          NO
327              0          0          0          NO
252              0          0          0          NO
405              0          0          0          NO
248              0          0          0          NO
416              0          0          0          NO
290              0          0          0          NO
297              0          0          0          NO
301              0          0          0          NO
395              0          0          0          NO
232              0          0          0          NO
308              0          0          0          NO
241              0          0          0          NO
399              0          0          0          NO
321              0          0          0          NO
328              0          0          0          NO
345              0          0          0          NO
331              0          0          0          NO
341              0          0          0          NO
447              0          0          0          NO
296              0          0          0          NO
381.1            0          0          0          NO
451              0          0          0          NO
250              0          0          0          NO
425              0          0          0          NO
428              0          0          0          NO

[COORDINATES]
;;Node           X-Coord            Y-Coord
;;-------------- ------------------ ------------------
0                -826180.47         573258.57         
0                -825947.25         573278.51         
0                -825245.75         572648.88         
0                -824935.00         572838.15         
0                -826601.84         569827.10         
0                -826749.94         569423.84         
0                -825047.43         570005.69         
0                -824074.90         570180.96         
0                -822646.48         569926.43         
0                -824267.53         571630.71         
0                -823390.46         571090.51         
0                -824024.27         572530.42         
0                -820825.57         571080.24         
0                -821604.32         570644.47         
0                -822522.38         574687.54         
0                -819559.16         572436.49         
0                -822738.41         570810.21         
0                -821720.87         574316.57         
0                -820666.72         574735.95         
0                -821369.95         573994.16         
0                -817655.94         572855.53         
0                -818645.99         570215.11         
0                -826714.87         571985.59         
0                -825134.91         570341.92         
0                -826080.74         571885.71         
0                -825708.59         572488.10         
0                -823549.50         570043.38         
0                -824608.34         571493.81         
0                -824713.81         571906.79         
0                -820730.62         570951.01         
0                -821119.70         571246.84         
0                -819883.38         570883.94         
0                -819158.64         570895.43         
0                -817225.12         574494.52         
0                -818632.03         574662.94         
0                -818030.66         573380.98         
0                -817676.20         571220.64         
0                -819664.51         573159.14         
0                -819509.91         575347.66         
0                -821302.51         573007.46         
0                -825337.92         572649.83         
0                -825066.11         569802.19         
0                -826416.54         570981.25         
0                -824336.21         570601.38         
0                -820735.78         570640.76         
0                -820573.61         573534.28         
0                -820907.20         574467.82         
0                -817879.97         573055.11         
0                -821600.37         572757.22         
0                -818776.82         571833.77         
0                -817232.09         575341.26         
0                -817391.74         572676.57         
0                -818733.82         570181.48         
0                -826641.45         569406.89         
0                -821444.50         573532.89         
0                -820732.88         570829.60         

[MAP]
DIMENSIONS -826749.94 569406.89 -817225.12 575347.66
Units      None

[REPORT]
INPUT            YES
SUBCATCHMENTS    ALL
NODES            ALL
LINKS            ALL



