;; SWMM5 .inp converted from XPSWMM .xp file
;; Generated by XPSWMM Card Reader
;; Source format: XP_CARD | Original title: (none)

[TITLE]
;;Project Title/Notes
Converted from XPSWMM .xp file

[OPTIONS]
FLOW_UNITS           CMS
INFILTRATION         HORTON
FLOW_ROUTING         DYNWAVE
LINK_OFFSETS         DEPTH
MIN_SLOPE            0.0
ALLOW_PONDING        NO
SKIP_STEADY_STATE    NO
ROUTING_STEP         00:00:30
VARIABLE_STEP        0.75
INERTIAL_DAMPING     PARTIAL
NORMAL_FLOW_LIMITED  BOTH
MAX_TRIALS           50
HEAD_TOLERANCE       .001

[JUNCTIONS]
;;Name           Elev       MaxDepth   InitDepth  SurDepth   Aponded
;;-------------- ---------- ---------- ---------- ---------- ----------
104              0          0          0          0          0
100              0          0          0          0          0
101              0          0          0          0          0
102              0          0          0          0          0
103              0          0          0          0          0
301              25.00      0          0          0          0
401              0          0          0          0          0
201              0          0          0          0          0
202              0          0          0          0          0
204              25.00      0          0          0          0
1004             130.00     0          0          0          0
1000             130.00     0          0          0          0
206              130.00     0          0          0          0
207              130.00     0          0          0          0
203              0          0          0          0          0
302              0          0          0          0          0
402              0          0          0          0          0
303              0          0          0          0          0
403              0          0          0          0          0
1002             130.00     0          0          0          0
1003             130.00     0          0          0          0
1001             130.00     0          0          0          0
106              130.00     0          0          0          0
105              0          0          0          0          0
205              0          0          0          0          0
1005             130.00     0          0          0          0

[STORAGE]
;;Name           Elev       MaxDepth   InitDepth  Shape      Curve/Params
;;-------------- ---------- ---------- ---------- ---------- ----------
1000             130.00     -15.50     0          FUNCTIONAL 3000.00 0          0
207              130.00     -15.00     0          FUNCTIONAL 2500.00 0          0

[CONDUITS]
;;Name           From             To               Length     Roughness  InOffset   OutOffset  InitFlow   MaxFlow
;;-------------- ---------------- ---------------- ---------- ---------- ---------- ---------- ---------- ----------
5                100              101              305.00     0.0140     0          0          0          0
6                101              102              305.00     0.0140     0          0          0          0
10               103              102              305.00     0.0140     0          0          0          0
20               201              202              650.00     0.0140     0          0          0          0
21               202              203              950.00     0.0140     0          0          0          0
125              104              105              680.00     0.0140     0          0          0          0
Ferguson         102              105              10.00      0.0140     0          0          0          0
174              204              205              850.00     0.0130     13.22      11.95      0          0
192              206              207              10.00      0.0140     113.02     113.00     0          0
409.1            1001             1002             10.00      0.0120     105.90     105.88     0          0
22               203              205              10.00      0.0140     0          0          0          0
265              301              302              10.00      0.0140     0          0          0          0
267              401              402              10.00      0.0140     0          0          0          0
269              302              303              10.00      0.0140     0          0          0          0
271              402              403              10.00      0.0140     0          0          0          0
273              302              1002             10.00      0.0140     0          0          0          0
275              402              1003             10.00      0.0140     0          0          0          0
276              1002             1003             325.00     0.0120     105.88     105.46     0          0
277              1003             1004             300.00     0.0120     105.46     105.07     0          0
282              207              207              10.00      0.0140     111.00     110.95     0          0
306              106              1000             10.00      0.0140     113.02     113.00     0          0
512.1            207              1004             10.00      0.0120     107.02     107.00     0          0
316              105              106              10.00      0.0140     0          0          0          0
318              205              206              10.00      0.0140     0          0          0          0
322              1004             1005             10.00      0.0140     105.07     105.05     0          0

[WEIRS]
;;Name           From             To               Type       CrestHt    Qcoeff     Gated    EndCon   EndCoeff   Surcharge
;;-------------- ---------------- ---------------- ---------- ---------- ---------- -------- -------- ---------- ----------
388.1            1000             1000             TRANSVERSE 109.02     1.840      NO       0        0          YES

[PUMPS]
;;Name           From             To               PumpCurve  Status   Startup    Shutoff
;;-------------- ---------------- ---------------- ---------- -------- ---------- ----------
409.1            1000             1001             PC_409.1   ON       0          0         

[CURVES]
;;Name           Type       X-Value    Y-Value
;;-------------- ---------- ---------- ----------
PC_409.1         Pump2      0          0
;

[XSECTIONS]
;;Link           Shape        Geom1      Geom2      Geom3      Geom4      Barrels
;;-------------- ------------ ---------- ---------- ---------- ---------- ----------
5                CIRCULAR     0.91       0          0          0          1
6                CIRCULAR     0.91       0          0          0          1
10               CIRCULAR     0.61       0          0          0          1
20               CIRCULAR     0.76       0          0          0          1
21               CIRCULAR     1.22       0          0          0          1
125              CIRCULAR     1.20       0          0          0          1
Ferguson         CIRCULAR     1.22       0          0          0          1
174              CIRCULAR     3.60       0          0          0          1
192              CIRCULAR     2.00       0          0          0          1
409.1            CIRCULAR     0.69       0          0          0          1
22               CIRCULAR     1.22       0          0          0          1
265              CIRCULAR     1.20       0          0          0          1
267              CIRCULAR     1.20       0          0          0          1
269              CIRCULAR     1.20       0          0          0          1
271              CIRCULAR     1.20       0          0          0          1
273              CIRCULAR     1.50       0          0          0          1
275              CIRCULAR     0.60       0          0          0          1
276              CIRCULAR     0.90       0          0          0          1
277              CIRCULAR     1.05       0          0          0          1
282              CIRCULAR     2.00       0          0          0          1
306              CIRCULAR     1.50       0          0          0          1
512.1            CIRCULAR     1.65       0          0          0          1
316              CIRCULAR     1.50       0          0          0          1
318              CIRCULAR     1.80       0          0          0          1
322              CIRCULAR     1.20       0          0          0          1
388.1            RECT_OPEN    0          10.00      0          0          

[LOSSES]
;;Link           Inlet      Outlet     Average    Flap Gate
;;-------------- ---------- ---------- ---------- ----------
5                0          0          0          NO
6                0          0          0          NO
10               0          0          0          NO
20               0          0          0          NO
21               0          0          0          NO
125              0          0          0          NO
Ferguson         0          0          0          NO
174              0          0          0          NO
192              0          0          0          NO
409.1            0          0          0          NO
22               0          0          0          NO
265              0          0          0          NO
267              0          0          0          NO
269              0          0          0          NO
271              0          0          0          NO
273              0          0          0          NO
275              0          0          0          NO
276              0          0          0          NO
277              0          0          0          NO
282              0          0          0          NO
306              0          0          0          NO
512.1            0          0          0          NO
316              0          0          0          NO
318              0          0          0          NO
322              0          0          0          NO

[COORDINATES]
;;Node           X-Coord            Y-Coord
;;-------------- ------------------ ------------------
104              83.44              70.97             
100              49.55              51.12             
101              62.25              40.96             
102              74.26              48.07             
103              81.32              31.18             
301              177.27             75.72             
401              178.45             107.84            
201              23.23              126.06            
202              56.70              139.77            
204              65.63              166.62            
1000             132.34             35.51             
1004             142.38             150.11            
1000             142.31             18.34             
206              105.81             150.96            
207              120.98             180.74            
203              72.38              146.68            
302              154.96             76.25             
402              156.96             107.57            
303              157.78             88.21             
403              156.72             125.37            
1002             133.02             78.25             
1003             137.39             107.88            
1001             132.77             55.60             
106              119.03             42.06             
207              119.07             149.35            
105              99.60              47.60             
205              92.28              151.44            
1005             142.86             182.71            

[MAP]
DIMENSIONS 23.23 18.34 178.45 182.71
Units      None

[REPORT]
INPUT            YES
SUBCATCHMENTS    ALL
NODES            ALL
LINKS            ALL



