;; SWMM5 .inp converted from XPSWMM .xp file
;; Generated by XPSWMM Card Reader
;; Source format: XP_CARD | Original title: (none)

[TITLE]
;;Project Title/Notes
Converted from XPSWMM .xp file

[OPTIONS]
FLOW_UNITS           CFS
INFILTRATION         HORTON
FLOW_ROUTING         DYNWAVE
LINK_OFFSETS         DEPTH
MIN_SLOPE            0.0
ALLOW_PONDING        NO
SKIP_STEADY_STATE    NO
ROUTING_STEP         00:00:05
VARIABLE_STEP        0.75
INERTIAL_DAMPING     PARTIAL
NORMAL_FLOW_LIMITED  BOTH
MAX_TRIALS           75
HEAD_TOLERANCE       0.0001

[JUNCTIONS]
;;Name           Elev       MaxDepth   InitDepth  SurDepth   Aponded
;;-------------- ---------- ---------- ---------- ---------- ----------
J450             15.00      0          0          0          0
J449             15.00      0          0          0          0
J2449            15.00      0          0          0          0
J2450            15.00      0          0          0          0
J448             15.00      0          0          0          0
J446             15.00      0          0          0          0
J457             15.00      0          0          0          0
J455             15.00      0          0          0          0
J2455            15.00      0          0          0          0
J3455            15.00      0          0          0          0
J454             15.00      0          0          0          0
J318             15.00      0          0          0          0
J411             15.00      0          0          0          0
J3349            15.00      0          0          0          0
J3449            15.00      0          0          0          0
J3450-P          15.00      0          0          0          0
J412             15.00      0          0          0          0
J460             15.00      0          0          0          0
J459             15.00      0          0          0          0
J2459            10.00      0          0          0          0
J473             15.00      0          0          0          0
J2420            15.00      0          0          0          0
J350             15.00      0          0          0          0
J420             15.00      0          0          0          0
J456             15.00      0          0          0          0
J2456            10.00      0          0          0          0
J3456            10.00      0          0          0          0
J458             15.00      0          0          0          0
J453             15.00      0          0          0          0
J452             15.00      0          0          0          0
J451             15.00      0          0          0          0
J421             15.00      0          0          0          0
J5442-P          15.00      0          0          0          0
J4422            15.00      0          0          0          0
J3422            15.00      0          0          0          0
J3421            15.00      0          0          0          0
J340             15.00      0          0          0          0
J2371            15.00      0          0          0          0
J372             15.00      0          0          0          0
J2372            10.00      0          0          0          0
J422             15.00      0          0          0          0
J441             15.00      0          0          0          0
J2441            15.00      0          0          0          0
J440             15.00      0          0          0          0
J442             15.00      0          0          0          0
J303             15.00      0          0          0          0
J2302            15.00      0          0          0          0
J3302            15.00      0          0          0          0
J302             15.00      0          0          0          0
J445             15.00      0          0          0          0
J2444            15.00      0          0          0          0
J2443            15.00      0          0          0          0
J3443            15.00      0          0          0          0
J443             15.00      0          0          0          0
J444             15.00      0          0          0          0
M-41             15.00      0          0          0          0
M-27             15.00      0          0          0          0
M-37             15.00      0          0          0          0
J470             15.00      0          0          0          0
J471             15.00      0          0          0          0
J2472            15.00      0          0          0          0
J472             15.00      0          0          0          0
J474             15.00      0          0          0          0
J2474-P          15.00      0          0          0          0
J2499            15.00      0          0          0          0
J499             15.00      0          0          0          0
J469             15.00      0          0          0          0
J2468            15.00      0          0          0          0
J468             15.00      0          0          0          0
J3468            15.00      0          0          0          0
J4466            15.00      0          0          0          0
J2466            15.00      0          0          0          0
J426             15.00      0          0          0          0
J3466-P          15.00      0          0          0          0
J467             15.00      0          0          0          0
J3499            15.00      0          0          0          0
J466             15.00      0          0          0          0
J2426            15.00      0          0          0          0
J5466            15.00      0          0          0          0
J493             15.00      0          0          0          0
J491             15.00      0          0          0          0
J2494            15.00      0          0          0          0
J492             15.00      0          0          0          0
J2495            15.00      0          0          0          0
J315             15.00      0          0          0          0
J317             15.00      0          0          0          0
J301             15.00      0          0          0          0
J316             15.00      0          0          0          0
J494             15.00      0          0          0          0
J495             15.00      0          0          0          0
J475             15.00      0          0          0          0
J3342            15.00      0          0          0          0
J464             15.00      0          0          0          0
J344             15.00      0          0          0          0
J2344            15.00      0          0          0          0
J2342            15.00      0          0          0          0
J342             15.00      0          0          0          0
J343             15.00      0          0          0          0
J2343            15.00      0          0          0          0
J3343-P          15.00      0          0          0          0
J482             15.00      0          0          0          0
J2482            15.00      0          0          0          0
J2480            15.00      0          0          0          0
J2435            15.00      0          0          0          0
J324             15.00      0          0          0          0
J2324            15.00      0          0          0          0
J478             15.00      0          0          0          0
J2478            15.00      0          0          0          0
J438             15.00      0          0          0          0
J4438            15.00      0          0          0          0
J4321            15.00      0          0          0          0
J321             15.00      0          0          0          0
J3438            15.00      0          0          0          0
J2438            15.00      0          0          0          0
J435             15.00      0          0          0          0
J480             15.00      0          0          0          0
J439             15.00      0          0          0          0
J2439            15.00      0          0          0          0
J3439-P          15.00      0          0          0          0
J424             15.00      0          0          0          0
J2424-P          15.00      0          0          0          0
J3324            15.00      0          0          0          0
J2396            15.00      0          0          0          0
J425             15.00      0          0          0          0
J3424            15.00      0          0          0          0
J396             15.00      0          0          0          0
J2392-P          15.00      0          0          0          0
J402             15.00      0          0          0          0
J2402            15.00      0          0          0          0
J398             15.00      0          0          0          0
J2398            6.00       0          0          0          0
J400             15.00      0          0          0          0
J2400            15.00      0          0          0          0
J399             15.00      0          0          0          0
J423             15.00      0          0          0          0
J432             15.00      0          0          0          0
J395             15.00      0          0          0          0
J322             15.00      0          0          0          0
J2322            15.00      0          0          0          0
J2397-P          15.00      0          0          0          0
J3397            15.00      0          0          0          0
J394             15.00      0          0          0          0
423-1            10.00      0          0          0          0
J397             15.00      0          0          0          0
M-51             15.00      0          0          0          0
NEW              15.00      0          0          0          0
J4318            15.00      0          0          0          0
J3414            15.00      0          0          0          0
J488             15.00      0          0          0          0
J2386            15.00      0          0          0          0
J386             15.00      0          0          0          0
J2387            15.00      0          0          0          0
J387             15.00      0          0          0          0
J3387            15.00      0          0          0          0
J348             15.00      0          0          0          0
J3307            15.00      0          0          0          0
J307             15.00      0          0          0          0
J2307            15.00      0          0          0          0
J3415-P          15.00      0          0          0          0
J345             15.00      0          0          0          0
J300             15.00      0          0          0          0
J2300            15.00      0          0          0          0
J3300            15.00      0          0          0          0
J4300            15.00      0          0          0          0
J5300            15.00      0          0          0          0
J346             15.00      0          0          0          0
J347             15.00      0          0          0          0
J2347            15.00      0          0          0          0
J3346            15.00      0          0          0          0
J4496            15.00      0          0          0          0
J3310            15.00      0          0          0          0
J3496            15.00      0          0          0          0
J497             15.00      0          0          0          0
J2496-P          15.00      0          0          0          0
J496             15.00      0          0          0          0
J2962            15.00      0          0          0          0
J2307.1          15.00      0          0          0          0
J414             15.00      0          0          0          0
J14346           15.00      0          0          0          0
J12346           15.00      0          0          0          0
J18346           15.00      0          0          0          0
J15346           15.00      0          0          0          0
J4346            15.00      0          0          0          0
J6436            15.00      0          0          0          0
J2311            15.00      0          0          0          0
J2310            15.00      0          0          0          0
J962             15.00      0          0          0          0
J2415            15.00      0          0          0          0
J2345            15.00      0          0          0          0
J3345            15.00      0          0          0          0
J462             15.00      0          0          0          0
J2462            15.00      0          0          0          0
J2401            15.00      0          0          0          0
J401             15.00      0          0          0          0
J2319-P          15.00      0          0          0          0
J6417            15.00      0          0          0          0
J2417            15.00      0          0          0          0
J417             15.00      0          0          0          0
J416             15.00      0          0          0          0
J415             15.00      0          0          0          0
J2346            15.00      0          0          0          0
J5346            15.00      0          0          0          0
J6346            15.00      0          0          0          0
J310             15.00      0          0          0          0
J311             15.00      0          0          0          0
J314             15.00      0          0          0          0
J312             15.00      0          0          0          0
J313             15.00      0          0          0          0
M-42             15.00      0          0          0          0
M-45             15.00      0          0          0          0
M-38             15.00      0          0          0          0
M-39             15.00      0          0          0          0
J319             15.00      0          0          0          0
M-7              15.00      0          0          0          0
M-24             15.00      0          0          0          0
M-52             15.00      0          0          0          0
M-13             15.00      0          0          0          0
M-49             15.00      0          0          0          0
M-48             15.00      0          0          0          0
M-4              15.00      0          0          0          0
M-6              15.00      0          0          0          0
J309             15.00      0          0          0          0
J308             15.00      0          0          0          0
J2323            15.00      0          0          0          0
J323             15.00      0          0          0          0
J305             15.00      0          0          0          0
J2388            15.00      0          0          0          0
J388             15.00      0          0          0          0
J2304            15.00      0          0          0          0
J304             15.00      0          0          0          0
J4304            15.00      0          0          0          0
J3327            15.00      0          0          0          0
J327             15.00      0          0          0          0
J2327            15.00      0          0          0          0
J328             15.00      0          0          0          0
J2326            15.00      0          0          0          0
J481             15.00      0          0          0          0
J326             15.00      0          0          0          0
J325             15.00      0          0          0          0
J2305-P          15.00      0          0          0          0
J334             15.00      0          0          0          0
J338             15.00      0          0          0          0
J3338            15.00      0          0          0          0
J333             15.00      0          0          0          0
J3339            15.00      0          0          0          0
J434             15.00      0          0          0          0
J339             15.00      0          0          0          0
J2339            15.00      0          0          0          0
J2335            15.00      0          0          0          0
J2329            10.00      0          0          0          0
J335             15.00      0          0          0          0
J341             15.00      0          0          0          0
J433             15.00      0          0          0          0
J2337            15.00      0          0          0          0
J2487            15.00      0          0          0          0
J337             15.00      0          0          0          0
J487             15.00      0          0          0          0
J332             15.00      0          0          0          0
J329             15.00      0          0          0          0
J4338            10.00      0          0          0          0
J5338            10.00      0          0          0          0
J336             15.00      0          0          0          0
J3336            15.00      0          0          0          0
J4336            10.00      0          0          0          0
J371             15.00      0          0          0          0
J2370            15.00      0          0          0          0
J370             15.00      0          0          0          0
J3370            15.00      0          0          0          0
J3359            15.00      0          0          0          0
J2368            15.00      0          0          0          0
J2377            15.00      0          0          0          0
J364             15.00      0          0          0          0
J2364            15.00      0          0          0          0
J3366            15.00      0          0          0          0
J2369            15.00      0          0          0          0
J365             15.00      0          0          0          0
J369             15.00      0          0          0          0
J385             15.00      0          0          0          0
J2385            15.00      0          0          0          0
J2373            15.00      0          0          0          0
J2419            15.00      0          0          0          0
J419             15.00      0          0          0          0
J373             15.00      0          0          0          0
J374             15.00      0          0          0          0
J368             15.00      0          0          0          0
J366             15.00      0          0          0          0
J377             15.00      0          0          0          0
PVT461           15.00      0          0          0          0
J2461-P          15.00      0          0          0          0
J3356            15.00      0          0          0          0
J2489            15.00      0          0          0          0
J356             15.00      0          0          0          0
J461             15.00      0          0          0          0
J2356            15.00      0          0          0          0
J362             15.00      0          0          0          0
J2362            15.00      0          0          0          0
J375             15.00      0          0          0          0
J2375            15.00      0          0          0          0
J427             15.00      0          0          0          0
J376             15.00      0          0          0          0
J2376            10.00      0          0          0          0
J363             15.00      0          0          0          0
J367             15.00      0          0          0          0
J2367            7.80       0          0          0          0
J359             15.00      0          0          0          0
J2359            7.80       0          0          0          0
J354             15.00      0          0          0          0
J353             15.00      0          0          0          0
J2353            15.00      0          0          0          0
J352             15.00      0          0          0          0
J358             15.00      0          0          0          0
J351             15.00      0          0          0          0
J361             15.00      0          0          0          0
J2361            10.00      0          0          0          0
J360             15.00      0          0          0          0
J355             15.00      0          0          0          0
J2355            10.00      0          0          0          0
J357             15.00      0          0          0          0
J3353            10.00      0          0          0          0
J389             15.00      0          0          0          0
J3376            10.00      0          0          0          0
J2363            10.00      0          0          0          0
PVT363           15.00      0          0          0          0
J2366            15.00      0          0          0          0
J2374            15.00      0          0          0          0
J378             15.00      0          0          0          0
J2358            10.00      0          0          0          0
J2378            10.00      0          0          0          0
J486             15.00      0          0          0          0
J2486            15.00      0          0          0          0
J2465            15.00      0          0          0          0
J2485            15.00      0          0          0          0
J490             15.00      0          0          0          0
J3490            15.00      0          0          0          0
J2498            15.00      0          0          0          0
J498             15.00      0          0          0          0
J3498-P          15.00      0          0          0          0
J2390            15.00      0          0          0          0
J3485            15.00      0          0          0          0
J2479            15.00      0          0          0          0
J479             15.00      0          0          0          0
J3479            15.00      0          0          0          0
J4479            15.00      0          0          0          0
J476             15.00      0          0          0          0
J2476            15.00      0          0          0          0
J410             15.00      0          0          0          0
J2410            15.00      0          0          0          0
J2408            15.00      0          0          0          0
J408             15.00      0          0          0          0
J485             15.00      0          0          0          0
J3408-P          15.00      0          0          0          0
PVT436           15.00      0          0          0          0
J3436            15.00      0          0          0          0
J2436            15.00      0          0          0          0
J2431            15.00      0          0          0          0
J2430            15.00      0          0          0          0
J431             15.00      0          0          0          0
J436             15.00      0          0          0          0
J430             15.00      0          0          0          0
J2437            15.00      0          0          0          0
J3437            15.00      0          0          0          0
J437             15.00      0          0          0          0
J4437-P          15.00      0          0          0          0
J3413            15.00      0          0          0          0
J4413            15.00      0          0          0          0
J2413            15.00      0          0          0          0
J413             15.00      0          0          0          0
J4408            15.00      0          13.00      0          0
J390             15.00      0          0          0          0
J483             15.00      0          0          0          0
J2483            15.00      0          0          0          0
J3429            15.00      0          0          0          0
J428             15.00      0          0          0          0
J2429            15.00      0          0          0          0
J429             15.00      0          0          0          0
J409             15.00      0          0          0          0
J2409            10.00      0          0          0          0
J404             15.00      0          0          0          0
J407             15.00      0          0          0          0
J2407            15.00      0          0          0          0
J403             15.00      0          0          0          0
J2403            10.00      0          0          0          0
J405             15.00      0          0          0          0
J2405            15.00      0          0          0          0
J380             15.00      0          0          0          0
J4380            10.00      0          0          0          0
J381             15.00      0          0          0          0
J2381            10.00      0          0          0          0
J484             15.00      0          0          0          0
J2484            15.00      0          0          0          0
J382             15.00      0          0          0          0
J2382            10.00      0          0          0          0
J391             15.00      0          0          0          0
J2477            15.00      0          0          0          0
J463             15.00      0          0          0          0
J477             15.00      0          0          0          0
J383             15.00      0          0          0          0
J2383            15.00      0          0          0          0
J379             15.00      0          0          0          0
J2379            10.00      0          0          0          0
J3379            10.00      0          0          0          0
J2380            15.00      0          0          0          0
J3380            10.00      0          0          0          0
J3382            10.00      0          0          0          0
J4482            10.00      0          0          0          0
J3484            15.00      0          0          0          0
J384             15.00      0          0          0          0
J1301            15.00      0          0          0          0
NTP-IN-1         150.00     0          0          0          0
NTP-O-1          35.00      0          0          0          0
NTP-IN-2         150.00     0          0          0          0
NTP-O-2          35.00      0          0          0          0
NTP-IN-3         150.00     0          0          0          0
NTP-O-3          35.00      0          0          0          0
J465             15.00      0          0          0          0
J1384            15.00      0          0          0          0
J1395            15.00      0          0          0          0
J1182            15.00      0          0          0          0
J1192-P          15.00      0          0          0          0
J182             15.00      0          0          0          0
J192             15.00      0          0          0          0
J2019            15.00      0          0          0          0
J22              15.00      0          0          0          0
J1019            15.00      0          0          0          0
J19              15.00      0          0          0          0
J3022            10.00      0          0          0          0
J4022            10.00      0          0          0          0
J2022            15.00      0          0          0          0
M-43             15.00      0          0          0          0
J2182            15.00      0          0          0          0
J331             15.00      0          0          0          0
J330             15.00      0          0          0          0
J1331            15.00      0          0          0          0
M-44             15.00      0          0          0          0
M-50             15.00      0          0          0          0
M-17             15.00      0          0          0          0
J4415            15.00      0          0          0          0
J393             15.00      0          0          0          0
J2393            10.00      0          0          0          0
J392             15.00      0          0          0          0
J320             15.00      0          0          0          0
J3477            15.00      0          0          0          0
J1310            15.00      0          0          0          0
J4345            15.00      0          0          0          0
J5436            15.00      0          0          0          0
J447             15.00      0          0          0          0
J2447            15.00      0          0          0          0
J1447            15.00      0          0          0          0
J1318            15.00      0          0          0          0
J3434            15.00      0          0          0          0
J3462            15.00      0          0          0          0
J3323            15.00      0          0          0          0
J2434            15.00      0          0          0          0
J1425            15.00      0          0          0          0
J1362            10.00      0          0          0          0
J1383            15.00      0          0          0          0
J1450            15.00      0          0          0          0
J4366            15.00      0          0          0          0
J3304            15.00      0          0          0          0
J3383            15.00      0          0          0          0
L2325            8.56       0          0          0          0
L2323            7.22       0          0          0          0
L2322            8.29       0          0          0          0
L2319            7.93       0          0          0          0
L2317            7.93       0          0          0          0