;; SWMM5 .inp converted from XPSWMM .xp file
;; Generated by XPSWMM Card Reader
;; Source format: XP_CARD | Original title: CITY OF SACRAMENTO -HAGGINWOOD DRAINAGE STUDY - DEWANTE & STOWELL ENGRS

[TITLE]
;;Project Title/Notes
CITY OF SACRAMENTO -HAGGINWOOD DRAINAGE STUDY - DEWANTE & STOWELL ENGRS

[OPTIONS]
FLOW_UNITS           CFS
INFILTRATION         HORTON
FLOW_ROUTING         DYNWAVE
LINK_OFFSETS         DEPTH
MIN_SLOPE            0.0
ALLOW_PONDING        NO
SKIP_STEADY_STATE    NO
ROUTING_STEP         00:00:05
VARIABLE_STEP        0.75
INERTIAL_DAMPING     NONE
NORMAL_FLOW_LIMITED  BOTH
MAX_TRIALS           50

[JUNCTIONS]
;;Name           Elev       MaxDepth   InitDepth  SurDepth   Aponded
;;-------------- ---------- ---------- ---------- ---------- ----------
0                45.00      0          0          0          0
0                45.00      0          0          0          0
0                50.00      0          0          0          0
0                55.00      0          0          0          0
0                55.00      0          0          0          0
0                48.40      0          0          0          0
0                50.00      0          0          0          0
0                50.00      0          0          0          0
0                50.00      0          0          0          0
0                50.00      0          0          0          0
0                50.00      0          0          0          0
0                47.00      0          0          0          0
0                45.10      0          0          0          0
0                45.20      0          0          0          0
0                45.10      0          0          0          0
0                45.10      0          0          0          0
0                48.30      0          0          0          0
0                49.00      0          0          0          0
0                48.00      0          0          0          0
0                48.00      0          0          0          0
0                70.60      0          0          0          0
0                70.40      0          0          0          0
0                69.50      0          0          0          0
0                68.20      0          0          0          0
0                66.70      0          0          0          0
0                68.30      0          0          0          0
0                62.10      0          0          0          0
0                59.00      0          0          0          0
0                55.30      0          0          0          0
0                56.00      0          0          0          0
0                55.20      0          0          0          0
0                52.80      0          0          0          0
0                52.90      0          0          0          0
0                52.50      0          0          0          0
0                63.20      0          0          0          0
0                65.00      0          0          0          0
0                64.40      0          0          0          0
0                65.30      0          0          0          0
0                66.40      0          0          0          0
0                69.40      0          0          0          0
0                71.30      0          0          0          0
0                69.60      0          0          0          0
0                69.00      0          0          0          0
0                71.00      0          0          0          0
0                71.50      0          0          0          0
0                50.00      0          0          0          0
0                49.60      0          0          0          0
0                48.50      0          0          0          0
0                50.00      0          0          0          0
0                50.00      0          0          0          0
0                50.00      0          0          0          0
0                51.00      0          0          0          0
0                51.00      0          0          0          0
0                51.30      0          0          0          0
0                51.30      0          0          0          0
0                52.60      0          0          0          0
0                52.60      0          0          0          0
0                65.50      0          0          0          0
0                52.60      0          0          0          0
0                54.72      0          0          0          0
0                56.00      0          0          0          0
0                56.05      0          0          0          0
0                56.00      0          0          0          0
0                57.90      0          0          0          0
0                49.20      0          0          0          0
0                49.40      0          0          0          0
0                51.20      0          0          0          0
0                52.27      0          0          0          0
0                54.00      0          0          0          0
0                51.00      0          0          0          0
0                53.20      0          0          0          0
0                0          0          0          0          0
0                0          0          0          0          0
0                0          0          0          0          0
0                0          0          0          0          0
0                0          0          0          0          0
0                0          0          0          0          0
0                0          0          0          0          0
0                0          0          0          0          0
0                0          0          0          0          0
0                0          0          0          0          0
0                0          0          0          0          0
0                0          0          0          0          0
0                0          0          0          0          0
0                0          0          0          0          0
0                0          0          0          0          0
0                0          0          0          0          0
0                0          0          0          0          0
0                0          0          0          0          0
0                0          0          0          0          0
0                0          0          0          0          0
0                0          0          0          0          0
0                0          0          0          0          0
0                0          0          0          0          0
0                0          0          0          0          0
0                0          0          0          0          0
0                0          0          0          0          0
0                0          0          0          0          0
0                0          0          0          0          0
0                0          0          0          0          0
0                0          0          0          0          0
0                0          0          0          0          0
0                0          0          0          0          0
0                0          0          0          0          0
0                0          0          0          0          0
0                0          0          0          0          0
0                0          0          0          0          0
0                0          0          0          0          0
0                0          0          0          0          0
0                0          0          0          0          0
0                0          0          0          0          0
0                0          0          0          0          0
0                0          0          0          0          0
0                0          0          0          0          0
0                0          0          0          0          0
0                0          0          0          0          0
0                0          0          0          0          0
0                0          0          0          0          0
0                0          0          0          0          0
0                0          0          0          0          0
0                0          0          0          0          0
0                0          0          0          0          0
0                0          0          0          0          0
0                0          0          0          0          0
0                0          0          0          0          0
0                0          0          0          0          0
0                0          0          0          0          0
0                0          0          0          0          0
0                0          0          0          0          0
0                0          0          0          0          0
0                0          0          0          0          0
0                0          0          0          0          0
0                0          0          0          0          0
0                0          0          0          0          0
0                0          0          0          0          0
0                0          0          0          0          0
0                0          0          0          0          0
0                0          0          0          0          0
0                0          0          0          0          0
0                0          0          0          0          0
0                0          0          0          0          0
0                0          0          0          0          0
0                0          0          0          0          0
0                0          0          0          0          0
0                0          0          0          0          0
0                0          0          0          0          0
0                0          0          0          0          0

[STORAGE]
;;Name           Elev       MaxDepth   InitDepth  Shape      Curve/Params
;;-------------- ---------- ---------- ---------- ---------- ----------
0                50.00      0          0          FUNCTIONAL 100.00 0          0
0                48.00      0          0          FUNCTIONAL 0 0          0
0                48.00      0          0          FUNCTIONAL 0 0          0

[CONDUITS]
;;Name           From             To               Length     Roughness  InOffset   OutOffset  InitFlow   MaxFlow
;;-------------- ---------------- ---------------- ---------- ---------- ---------- ---------- ---------- ----------
201              ?                0                1185.00    0.0172     27.45      26.05      0          0
201              0                0                1185.00    0.0172     27.45      26.05      0          0
206              0                0                371.00     0.0360     28.72      28.35      0          0
208              0                0                1029.92    0.0180     29.75      28.72      0          0
210              0                0                589.00     0.0300     30.33      29.75      0          0
212              0                0                665.00     0.0302     31.30      30.33      0          0
210              0                0                322.00     0.0332     38.00      41.74      0          0
214              0                0                490.00     0.0197     41.74      41.50      0          0
216              0                0                380.00     0.0211     41.50      41.30      0          0
21221            21223            0                250.00     0.0207     41.30      41.17      0          0
21231            21232            0                188.00     0.0071     41.17      41.00      0          0
222              0                0                535.00     0.2400     42.50      40.00      0          0
224              0                0                190.00     0.1000     40.00      38.00      0          0
226              0                0                220.00     0.0108     38.00      37.90      0          0
228              0                0                220.00     0.0426     37.90      37.80      0          0
230              0                0                220.00     0.0102     37.80      37.75      0          0
232              0                0                180.00     0.0707     37.75      37.50      0          0
234              0                0                200.00     0.0178     37.50      37.45      0          0
201              0                0                100.00     0.0327     42.00      40.50      0          0
237              0                0                260.00     0.0500     40.50      37.59      0          0
21341            21342            0                220.00     0.0193     37.59      37.48      0          0
241              0                0                875.00     0.0500     37.48      34.37      0          0
243              0                0                260.00     0.0121     34.37      34.11      0          0
247              0                0                210.00     0.0150     57.99      56.70      0          0
248              0                0                565.00     0.0150     56.70      53.60      0          0
250              0                0                470.00     0.0150     53.60      50.90      0          0
252              0                0                340.00     0.0150     50.90      50.00      0          0
254              0                0                700.00     0.0150     50.00      48.05      0          0
256              0                0                982.00     0.0150     45.53      43.50      0          0
258              0                0                885.00     0.0150     43.50      41.50      0          0
260              0                0                382.00     0.0150     41.50      40.78      0          0
262              0                0                80.00      0.0150     39.78      39.75      0          0
264              0                0                569.00     0.0150     39.75      39.13      0          0
266              0                0                1279.00    0.0150     39.13      36.41      0          0
268              0                0                708.00     0.0150     36.41      33.93      0          0
270              0                0                375.00     0.0150     33.93      32.63      0          0
272              0                0                430.00     0.0150     32.63      31.00      0          0
275              0                0                820.00     0.0150     46.17      45.53      0          0
277              0                0                660.00     0.0150     47.20      46.17      0          0
279              0                0                655.00     0.0150     48.13      47.20      0          0
281              0                0                310.00     0.0150     49.11      48.63      0          0
283              0                0                328.00     0.0150     49.69      49.11      0          0
285              0                0                432.00     0.0150     50.77      50.19      0          0
287              0                0                336.00     0.0150     51.23      50.77      0          0
289              0                0                385.00     0.0150     52.50      50.75      0          0
291              0                0                32.00      0.0300     64.00      56.95      0          0
293              0                0                17.00      0.0150     66.01      64.00      0          0
295              0                0                526.00     0.0150     67.72      66.01      0          0
297              0                0                200.00     0.0250     44.10      38.00      0          0
300              0                0                538.00     0.0150     34.07      33.00      0          0
298              0                0                466.00     0.0150     35.18      34.07      0          0
303              0                0                150.00     0.0180     44.15      44.10      0          0
305              0                0                360.00     0.0250     44.87      44.15      0          0
307              0                0                701.00     0.0250     45.69      44.15      0          0
309              0                0                510.00     0.0150     46.76      45.69      0          0
311              0                0                280.00     0.0150     47.18      46.76      0          0
313              0                0                130.00     0.0150     47.56      47.18      0          0
315              0                0                125.00     0.0200     48.16      47.56      0          0
317              0                0                360.00     0.0150     49.20      48.16      0          0
319              0                0                120.00     0.0104     49.36      49.20      0          0
321              0                0                670.00     0.0150     50.11      49.36      0          0
319              0                0                125.00     0.0250     49.36      48.86      0          0
323              0                0                330.00     0.0250     48.86      47.56      0          0
326              0                0                650.00     0.0050     51.72      50.11      0          0
328              0                0                38.00      0.0470     48.80      42.75      0          0
330              0                0                10.00      0.0200     51.40      51.00      0          0
333              0                0                235.00     0.0400     52.69      51.40      0          0
335              0                0                323.00     0.0150     38.03      37.10      0          0
337              0                0                392.00     0.0150     38.90      38.03      0          0
339              0                0                250.00     0.0150     41.15      40.35      0          0
341              0                0                295.00     0.0150     42.45      41.40      0          0
343              0                0                395.00     0.0150     44.56      42.45      0          0
345              0                0                470.00     0.0250     42.09      40.40      0          0
347              0                0                365.00     0.0250     43.47      42.09      0          0
409              0                0                110.00     0.0250     0          0          0          0
351              0                0                90.00      0.0300     0          0          0          0
352              0                0                40.00      0.0250     0          0          0          0
353              0                0                420.00     0.0300     0          0          0          0
414              0                0                1900.00    0.0250     0          0          0          0
354              0                0                100.00     0.0300     0          0          0          0
417              0                0                1650.00    0.0300     0          0          0          0
419              0                0                370.00     0.0250     0          0          0          0
355              0                0                455.00     0.0250     0          0          0          0
356              0                0                480.00     0.0300     0          0          0          0
423              0                0                280.00     0.0200     0          0          0          0
357              0                0                317.00     0.0250     0          0          0          0
358              0                0                244.00     0.0150     0          0          0          0
359              0                0                240.00     0.0150     0          0          0          0
360              0                0                600.00     0.0150     0          0          0          0
429              0                0                320.00     0.0250     0          0          0          0
431              0                0                110.00     0.0250     0          0          0          0
361              0                0                190.00     0.0250     0          0          0          0
362              0                0                90.00      0.0230     0          0          0          0
363              0                0                10.00      0.0560     0          0          0          0
364              0                0                100.00     0.0190     0          0          0          0
365              0                0                600.00     0.0150     0          0          0          0
366              0                0                50.00      0.0200     0          0          0          0
367              0                0                360.00     0.0150     0          0          0          0
368              0                0                270.00     0.0150     0          0          0          0
369              0                0                100.00     0.0280     0          0          0          0
370              0                0                420.00     0.0280     0          0          0          0
371              0                0                100.00     0.0280     0          0          0          0
372              0                0                275.00     0.0280     0          0          0          0
445              0                0                675.00     0.0280     0          0          0          0
373              0                0                230.00     0.0280     0          0          0          0
374              0                0                360.00     0.0250     0          0          0          0
375              0                0                150.00     0.0250     0          0          0          0
450              0                0                256.00     0.0200     0          0          0          0
452              0                0                880.00     0.0250     0          0          0          0
376              0                0                345.00     0.0150     0          0          0          0
377              0                0                155.00     0.0250     0          0          0          0
378              0                0                485.00     0.0260     0          0          0          0
379              0                0                455.00     0.0260     0          0          0          0
381              0                0                165.00     0.0260     0          0          0          0
380              0                0                410.00     0.0260     0          0          0          0
460              0                0                410.00     0.0260     0          0          0          0
462              0                0                100.00     0.0260     0          0          0          0
382              0                0                460.00     0.0250     0          0          0          0
465              0                0                535.00     0.0250     0          0          0          0
467              0                0                470.00     0.0250     0          0          0          0
383              0                0                280.00     0.0260     0          0          0          0
384              0                0                175.00     0.0260     0          0          0          0
385              0                0                80.00      0.0260     0          0          0          0
386              0                0                170.00     0.0400     0          0          0          0
387              0                0                805.00     0.0150     0          0          0          0
388              0                0                44.00      0.0125     0          0          0          0
389              0                0                378.00     0.0150     0          0          0          0
390              0                0                42.00      0.0125     0          0          0          0
391              0                0                214.00     0.0150     0          0          0          0
392              0                0                42.00      0.0125     0          0          0          0
393              0                0                285.00     0.0150     0          0          0          0
394              0                0                578.00     0.0150     0          0          0          0
395              0                0                48.00      0.0200     0          0          0          0
396              0                0                208.00     0.0150     0          0          0          0
397              0                0                44.00      0.0200     0          0          0          0
398              0                0                754.00     0.0150     0          0          0          0
485              0                0                45.00      0.0200     0          0          0          0
399              0                0                635.00     0.0250     0          0          0          0
400              0                0                200.00     0.0300     0          0          0          0
401              0                0                420.00     0.0400     0          0          0          0
402              0                0                40.00      0.0370     0          0          0          0
403              0                0                420.00     0.0400     0          0          0          0
492              0                0                375.00     0.0400     0          0          0          0
404              0                0                45.47      0.0150     0          0          0          0
495              0                0                47.22      0.0150     0          0          0          0
405              0                0                150.00     0.0250     0          0          0          0
406              0                0                160.00     0.0250     0          0          0          0
407              0                0                245.00     0.0250     0          0          0          0
408              0                0                240.00     0.0250     0          0          0          0
501              0                0                230.00     0.0250     0          0          0          0

[WEIRS]
;;Name           From             To               Type       CrestHt    Qcoeff     Gated    EndCon   EndCoeff   Surcharge
;;-------------- ---------------- ---------------- ---------- ---------- ---------- -------- -------- ---------- ----------
330              0                0                V-NOTCH    51.70      1.840      NO       0        0          YES
331              0                0                TRANSVERSE 51.74      1.840      NO       0        0          YES

[XSECTIONS]
;;Link           Shape        Geom1      Geom2      Geom3      Geom4      Barrels
;;-------------- ------------ ---------- ---------- ---------- ---------- ----------
201              CIRCULAR     6.00       0          0          0          1
201              CIRCULAR     6.00       0          0          0          1
206              CIRCULAR     8.00       0          0          0          1
208              CIRCULAR     8.00       0          0          0          1
210              CIRCULAR     8.00       0          0          0          1
212              CIRCULAR     10.50      0          0          0          1
210              CIRCULAR     4.50       0          0          0          1
214              CIRCULAR     5.00       0          0          0          1
216              CIRCULAR     5.00       0          0          0          1
21221            CIRCULAR     3.50       0          0          0          1
21231            CIRCULAR     3.00       0          0          0          1
222              POWER        4.00       150.00     0          0          1
224              TRAPEZOIDAL  7.00       5.00       0          0          1
226              CIRCULAR     3.50       0          0          0          1
228              TRAPEZOIDAL  7.20       6.00       0          0          1
230              CIRCULAR     3.50       0          0          0          1
232              TRAPEZOIDAL  7.20       15.00      0          0          1
234              RECT_CLOSED  5.50       4.52       0          0          1
201              RECT_CLOSED  2.00       4.00       0          0          1
237              TRAPEZOIDAL  7.00       40.00      0          0          1
21341            CIRCULAR     4.00       0          0          0          1
241              TRAPEZOIDAL  7.00       10.00      0          0          1
243              CIRCULAR     4.00       0          0          0          1
247              CIRCULAR     3.50       0          0          0          1
248              CIRCULAR     3.50       0          0          0          1
250              CIRCULAR     3.50       0          0          0          1
252              CIRCULAR     3.50       0          0          0          1
254              CIRCULAR     3.50       0          0          0          1
256              CIRCULAR     6.00       0          0          0          1
258              CIRCULAR     6.00       0          0          0          1
260              CIRCULAR     6.00       0          0          0          1
262              CIRCULAR     7.00       0          0          0          1