;; SWMM5 .inp converted from XPSWMM .xp file
;; Generated by XPSWMM Card Reader
;; Source format: XP_CARD | Original title: Toongabbie Creek - Confluence Area

[TITLE]
;;Project Title/Notes
Toongabbie Creek - Confluence Area

[OPTIONS]
FLOW_UNITS           CMS
INFILTRATION         HORTON
FLOW_ROUTING         DYNWAVE
LINK_OFFSETS         DEPTH
MIN_SLOPE            0.0
ALLOW_PONDING        NO
SKIP_STEADY_STATE    NO
ROUTING_STEP         00:00:10
VARIABLE_STEP        0.75
INERTIAL_DAMPING     PARTIAL
NORMAL_FLOW_LIMITED  BOTH
MAX_TRIALS           50
HEAD_TOLERANCE       0.0001

[JUNCTIONS]
;;Name           Elev       MaxDepth   InitDepth  SurDepth   Aponded
;;-------------- ---------- ---------- ---------- ---------- ----------
T33.1            50.00      0          0          0          0
T32.7            50.00      0          0          0          0
T32.3            50.00      0          0          0          0
T31.15           50.00      0          0          0          0
1.16             50.00      0          0          0          0
T32.0            50.00      0          0          0          0
T30.3            50.00      0          0          0          0
Outlet           50.00      0          0          0          0
6.14             50.00      0          0          0          0
PH1.15           50.00      0          0          0          0
PH1.0            50.00      0          0          0          0
PH1.54           50.00      0          0          0          0
PH1.7            50.00      0          0          0          0
PH3.1            50.00      0          0          0          0
PH2.4            50.00      0          0          0          0
PH3.2            50.00      0          0          0          0
PH10.2           50.00      0          0          0          0
6.09             50.00      0          0          0          0
PH9.1            50.00      0          0          0          0
63.00            50.00      0          0          0          0
62.00            50.00      0          0          0          0
6.11             50.00      0          0          0          0
PH7.2            50.00      0          0          0          0
PH7.0            50.00      0          0          0          0
PH6.5            50.00      0          0          0          0
PH6.0            50.00      0          0          0          0
PH5.7            50.00      0          0          0          0
PH5.4            50.00      0          0          0          0
PH11.5           50.00      0          0          0          0
PH11.0           50.00      0          0          0          0
G2.5             50.00      0          0          0          0
G2.2             50.00      0          0          0          0
G3.13            50.00      0          0          0          0
G3.12            50.00      0          0          0          0
6.08             51.00      0          0          0          0
65.09            50.00      0          0          0          0
M2               50.00      0          0          0          0
M3               50.00      0          0          0          0
M6               50.00      0          0          0          0
M7               50.00      0          0          0          0
M8               50.00      0          0          0          0
M9               50.00      0          0          0          0
M10              50.00      0          0          0          0
P1               50.00      0          0          0          0
P2               50.00      0          0          0          0
M5               50.00      0          0          0          0
M1               50.00      0          0          0          0
G4.3             50.00      0          0          0          0
G4.305           50.00      0          0          0          0
G4.31            50.00      0          0          0          0
G4.34            50.00      0          0          0          0
G5.2             50.00      0          0          0          0
G6.0             50.00      0          0          0          0
G7.0             50.00      0          0          0          0
G8.5             50.00      0          0          0          0
G10.0            50.00      0          0          0          0
69.00            50.00      0          0          0          0
G12.0            50.00      0          0          0          0
G13.0            50.00      0          0          0          0
G13.1            50.00      0          0          0          0
G13.2            50.00      0          0          0          0
G14.0            50.00      0          0          0          0
G15.0            50.00      0          0          0          0
G15.5            50.00      0          0          0          0
65.05E           50.00      0          0          0          0
G4.2             50.00      0          0          0          0
C1               50.00      0          0          0          0
C2               50.00      0          0          0          0
C3               50.00      0          0          0          0
G13.5            50.00      0          0          0          0
G12.5            50.00      0          0          0          0

[STORAGE]
;;Name           Elev       MaxDepth   InitDepth  Shape      Curve/Params
;;-------------- ---------- ---------- ---------- ---------- ----------
T32.5            50.00      0          0          FUNCTIONAL 2.00 0          0
1.13E            50.00      0          0          FUNCTIONAL 10.00 0          0
6.13             50.00      0          0          FUNCTIONAL 2.00 0          0
PH2.0            50.00      0          0          FUNCTIONAL 2.00 0          0
PH4.1            50.00      0          0          FUNCTIONAL 100.00 0          0
PH4.0            50.00      0          0          FUNCTIONAL 100.00 0          0
6.12             50.00      0          0          FUNCTIONAL 100.00 0          0
PH12.1           50.00      0          0          FUNCTIONAL 5.00 0          0
PH12.0           50.00      0          0          FUNCTIONAL 2.00 0          0
PH13.0           51.00      -1.00      0          FUNCTIONAL 2.00 0          0
PH14.0           51.00      0          0          FUNCTIONAL 10.00 0          0
PH14.1           51.00      0          0          FUNCTIONAL 2.00 0          0
G3.1             50.00      0          0          FUNCTIONAL 5.00 0          0
G3.0             50.00      0          0          FUNCTIONAL 5.00 0          0
G4.0             50.00      0          0          FUNCTIONAL 1.00 0          0
M11              50.00      0          0          FUNCTIONAL 5.00 0          0
M12              50.00      0          0          FUNCTIONAL 5.00 0          0
M13              50.00      0          0          FUNCTIONAL 10.00 0          0
M4               50.00      0          0          FUNCTIONAL 200.00 0          0
64.00            50.00      0          0          FUNCTIONAL 5.00 0          0
M19              50.00      0          0          FUNCTIONAL 5.00 0          0
M20              50.00      0          0          FUNCTIONAL 5.00 0          0
64.01            50.00      0          0          FUNCTIONAL 10.00 0          0
M17              50.00      0          0          FUNCTIONAL 2.00 0          0
30.00            50.00      0          0          FUNCTIONAL 20.00 0          0
G5.0             50.00      0          0          FUNCTIONAL 50.00 0          0
G5.1             50.00      0          0          FUNCTIONAL 50.00 0          0
65.08            50.00      0          0          FUNCTIONAL 5.00 0          0
G11.0            50.00      0          0          FUNCTIONAL 100.00 0          0
65.06            50.00      0          0          FUNCTIONAL 100.00 0          0
G7.5             50.00      0          0          FUNCTIONAL 50.00 0          0

[CONDUITS]
;;Name           From             To               Length     Roughness  InOffset   OutOffset  InitFlow   MaxFlow
;;-------------- ---------------- ---------------- ---------- ---------- ---------- ---------- ---------- ----------
T33-1            T33.1            T32.7            0          0          19.85      19.21      0          0
T32-7            T32.7            T32.5            0          0          19.21      19.01      0          0
T32-5            T32.5            T32.3            0          0          19.01      18.09      0          0
T32-3            T32.3            T31.15           0          0          18.09      17.91      0          0
T31-15           T31.15           1.16             0          0          17.91      17.30      0          0
JOHNST           1.16             T32.0            10.00      0          17.30      17.30      0          0
T32-0            T30.3            T32.0            0          0          17.32      17.30      0          0
T30-3            T30.3            Outlet           0          0          17.32      17.11      0          0
T33-2            1.13E            T33.1            0          0          20.87      19.85      0          0
PH1-2            6.14             PH1.15           0          0          23.00      22.65      0          0
PH1-15           PH1.15           PH1.0            0          0          22.65      22.07      0          0
PH1-0            PH1.0            1.13E            0          0          22.07      20.87      0          0
PH1-54           PH1.54           6.14             0          0          23.16      23.00      0          0
PH1-7            PH1.7            PH1.54           0          0          23.30      23.16      0          0
PH1-7a           PH2.0            PH1.7            0          0          23.38      23.30      0          0
PH3-1            PH3.1            PH2.4            0          0          24.66      23.71      0          0
PH2-4            PH2.4            6.13             0          0          23.71      23.58      0          0
PH4-1            PH4.1            PH4.0            0          0          25.68      25.25      0          0
PH4-0            PH4.0            PH3.2            0          0          25.25      24.81      0          0
PH3-2            PH3.2            PH3.1            0          0          24.81      24.66      0          0
BARBC            BARRD            PH4.1            14.70      0.0150     25.83      25.68      0          0
PH9-3            PH9.1            6.09             0          0          31.11      31.05      0          0
PH9-1            PH9.1            63.00            0          0          31.11      29.75      0          0
PH9-0            63.00            62.00            0          0          29.75      29.00      0          0
PH8-0            62.00            6.11             0          0          29.00      28.77      0          0
PH7-4            6.11             PH7.2            0          0          28.77      28.14      0          0
PH7-2            PH7.2            PH7.0            0          0          28.14      27.60      0          0
PH7-0            PH7.0            PH6.5            0          0          27.60      26.92      0          0
PH6-5            PH6.5            PH6.0            0          0          26.92      26.55      0          0
PH6-0            PH6.0            PH5.7            0          0          26.55      26.05      0          0
PH5-7            PH5.7            PH5.4            0          0          26.05      25.64      0          0
PH5-4            6.12             PH5.4            0          0          25.83      25.64      0          0
PH11-5           PH11.5           PH11.0           0          0          33.15      32.84      0          0
PH11-0           PH11.0           PH10.2           0          0          32.84      31.62      0          0
PH13-0           PH12.1           PH13.0           0          0          33.10      33.09      0          0
WENTBC           WENTRD           PH13.0           22.00      0.0150     33.16      33.09      0          0
RAILBC           RAILNS           PH14.0           37.00      0.0150     33.47      33.16      0          0
G2-6             G3.0             G2.5             0          0          24.51      24.03      0          0
G2-5             G2.5             G2.2             0          0          24.03      23.52      0          0
G2-2             G2.2             6.14             0          0          23.52      23.00      0          0
G3-13a           G4.0             G3.13            0          0          25.77      25.33      0          0
G3-13            G3.13            G3.12            0          0          25.33      24.99      0          0
G3-12            G3.12            G3.1             10.00      0.0140     24.99      24.63      0          0
PH10-2           PH10.2           6.09             0          0          31.62      31.05      0          0
INDBC            INDNS            PH12.0           60.00      0.0140     33.10      33.05      0          0
PH14.4           6.08             PH14.1           0          0          34.00      33.47      0          0
RAILG            65.09            G4.0             0          0          25.99      25.77      0          0
M1M5             M5               M1               0          0          26.00      25.95      0          0
M5M8             M8               M5               0          0          26.40      26.00      0          0
M8M11            M11              M8               0          0          27.00      26.40      0          0
M8M9             M8               M9               0          0          26.40      26.20      0          0
M9M10            M9               M10              0          0          26.20      26.00      0          0
M5M6             M5               M6               0          0          26.00      25.80      0          0
M6M7             M6               M7               0          0          25.80      25.70      0          0
M1M2             M1               M2               0          0          25.95      25.85      0          0
M2M3             M2               M3               0          0          25.85      25.80      0          0
M3M4             M3               M4               0          0          25.80      25.75      0          0
M2M6             M2               M6               0          0          25.85      25.80      0          0
M6M9             M9               M6               0          0          26.20      25.80      0          0
M9M12            M12              M9               0          0          26.50      26.20      0          0
M4M7             M4               M7               0          0          25.75      25.70      0          0
M7M10            M10              M7               0          0          26.00      25.70      0          0
M10M13           M10              M13              0          0          26.00      25.80      0          0
P2PH15           P2               PH1.54           0          0          26.30      25.40      0          0
P2G25            P2               G2.5             0          0          26.30      26.00      0          0
P1P2             P1               P2               0          0          27.90      26.30      0          0
G312P1           G3.12            P1               0          0          28.20      27.90      0          0
PH12-0           PH11.5           PH12.0           0          0          33.15      33.05      0          0
PIPE1            SURF1            M19              90.00      0.0140     26.20      25.30      0          0
PIPE2            SURF2            M20              120.00     0.0140     25.30      24.10      0          0
PIPE3            SURF3            M11              60.00      0.0140     24.10      23.46      0          0
PIPE4            SURF4            M12              171.00     0.0140     23.46      22.44      0          0
PIPE5            SURF5            M13              180.00     0.0140     22.39      22.01      0          0
PIPE6            SURF6            64.01            80.00      0.0140     22.01      21.84      0          0
30-00            30.00            T31.15           43.00      0.0150     21.68      21.00      0          0
G16-0            65.05E           G15.5            0          0          36.44      35.22      0          0
G15-5            G15.5            G15.0            0          0          35.22      34.04      0          0
G15-0            G14.0            G15.0            0          0          34.18      34.04      0          0
G14-0            G14.0            G13.5            0          0          34.18      33.70      0          0
G13-2            G13.2            G13.1            0          0          32.92      32.43      0          0
G13-1            G13.1            G13.0            0          0          32.43      31.21      0          0
G13-0            G13.0            G12.5            0          0          31.21      29.40      0          0
G12-0            65.06            G12.0            10.00      0          30.29      30.20      0          0
G11-0            69.00            G11.0            0          0          29.77      29.57      0          0
G10-5            69.00            G10.0            0          0          29.77      29.45      0          0
G10-0            G10.0            G8.5             0          0          29.45      28.67      0          0
G7-0             G7.0             G6.0             0          0          27.90      27.58      0          0
G6-0             G6.0             G5.2             0          0          27.58      27.51      0          0
G5-2             G5.2             G5.1             0          0          27.51      27.35      0          0
G5-0             G4.34            G5.0             0          0          27.28      27.25      0          0
G4-34            G4.34            G4.31            0          0          27.28      26.51      0          0
G4-31            G4.31            G4.305           0          0          26.51      26.50      0          0
G4-305           G4.305           G4.3             0          0          26.50      26.38      0          0
G7-5             G7.5             G7.0             0          0          28.03      27.90      0          0
PORBC            PORRD            G11.0            8.00       0.0150     29.57      29.57      0          0
OCTBC            OCTRD            G7.5             10.00      0.0300     28.40      28.37      0          0
CORNBC           CORNRD           G5.0             17.50      0.0250     27.35      27.25      0          0
PORTBC           PORTRD           G4.2             14.00      0.0150     26.40      26.38      0          0
M17181           M17              T32.5            0          0          20.67      20.12      0          0
G8-5             G8.5             65.08            0          0          28.67      28.40      0          0
G4-2             G4.2             65.09            0          0          26.38      25.99      0          0
611C3            6.12             C1               0          0          28.50      27.50      0          0
C1C2             C1               C2               0          0          27.50      27.10      0          0
C2C3             C2               C3               0          0          27.10      26.40      0          0
C3612            C3               6.13             0          0          26.40      26.15      0          0
G13-5            G13.5            G13.2            0          0          33.70      32.92      0          0
G12-5            G12.0            G12.5            0          0          30.20      29.40      0          0

[WEIRS]
;;Name           From             To               Type       CrestHt    Qcoeff     Gated    EndCon   EndCoeff   Surcharge
;;-------------- ---------------- ---------------- ---------- ---------- ---------- -------- -------- ---------- ----------
STATBC           STATRD           G3.0             TRANSVERSE 27.58      1.840      NO       0        0          YES
FITZBC           FITZRD           PH2.0            TRANSVERSE 0          1.840      NO       0        0          YES
WEIR5            PH1.15           M4               TRANSVERSE 26.25      1.840      NO       0        0          YES
WEIR4            6.14             M3               TRANSVERSE 26.30      1.840      NO       0        0          YES
WEIR2            PH1.7            M1               TRANSVERSE 26.40      1.840      NO       0        0          YES
PIPE7            SURF7            SURF7B           TRANSVERSE 26.00      1.840      NO       0        0          YES
FWR1             FWR2             FWR3             TRANSVERSE 26.35      1.840      NO       0        0          YES
WEIR6            M7               T33.1            TRANSVERSE 26.50      1.840      NO       0        0          YES
WEIR7            M10              T32.7            TRANSVERSE 26.50      1.840      NO       0        0          YES
WEIR3            PH1.54           M2               TRANSVERSE 26.40      1.840      NO       0        0          YES

[XSECTIONS]
;;Link           Shape        Geom1      Geom2      Geom3      Geom4      Barrels
;;-------------- ------------ ---------- ---------- ---------- ---------- ----------
T33-1            IRREGULAR    12.00      0          0          0          1
T32-7            IRREGULAR    12.00      0          0          0          1
T32-5            IRREGULAR    12.00      0          0          0          1
T32-3            IRREGULAR    12.00      0          0          0          1
T31-15           IRREGULAR    12.00      0          0          0          1
JOHNST           IRREGULAR    12.00      0          0          0          1
T32-0            IRREGULAR    15.00      0          0          0          1
T30-3            IRREGULAR    15.00      0          0          0          1
T33-2            IRREGULAR    12.00      0          0          0          1
PH1-2            IRREGULAR    10.00      0          0          0          1
PH1-15           IRREGULAR    10.00      0          0          0          1
PH1-0            IRREGULAR    10.00      0          0          0          1
PH1-54           IRREGULAR    10.00      0          0          0          1
PH1-7            IRREGULAR    10.00      0          0          0          1
PH1-7a           IRREGULAR    10.00      0          0          0          1
PH3-1            IRREGULAR    10.00      0          0          0          1
PH2-4            IRREGULAR    10.00      0          0          0          1
PH4-1            IRREGULAR    10.00      0          0          0          1
PH4-0            IRREGULAR    10.00      0          0          0          1
PH3-2            IRREGULAR    10.00      0          0          0          1
BARBC            RECT_CLOSED  2.15       3.10       0          0          2
PH9-3            IRREGULAR    10.00      0          0          0          1
PH9-1            IRREGULAR    10.00      0          0          0          1
PH9-0            IRREGULAR    10.00      0          0          0          1
PH8-0            IRREGULAR    10.00      0          0          0          1
PH7-4            IRREGULAR    10.00      0          0          0          1
PH7-2            IRREGULAR    10.00      0          0          0          1
PH7-0            IRREGULAR    10.00      0          0          0          1
PH6-5            IRREGULAR    10.00      0          0          0          1
PH6-0            IRREGULAR    10.00      0          0          0          1
PH5-7            IRREGULAR    10.00      0          0          0          1
PH5-4            IRREGULAR    10.00      0          0          0          1
PH11-5           IRREGULAR    10.00      0          0          0          1
PH11-0           IRREGULAR    10.00      0          0          0          1
PH13-0           IRREGULAR    10.00      0          0          0          1
WENTBC           RECT_CLOSED  2.40       2.70       0          0          2
RAILBC           RECT_CLOSED  2.40       3.35       0          0          2
G2-6             IRREGULAR    10.00      0          0          0          1
G2-5             IRREGULAR    10.00      0          0          0          1
G2-2             IRREGULAR    10.00      0          0          0          1
G3-13a           IRREGULAR    10.00      0          0          0          1
G3-13            IRREGULAR    10.00      0          0          0          1
G3-12            IRREGULAR    10.00      0          0          0          1
PH10-2           IRREGULAR    10.00      0          0          0          1
INDBC            RECT_CLOSED  2.25       4.00       0          0          1
PH14.4           IRREGULAR    10.00      0          0          0          1
RAILG            IRREGULAR    10.00      0          0          0          1
M1M5             IRREGULAR    10.00      0          0          0          1
M5M8             IRREGULAR    10.00      0          0          0          1
M8M11            IRREGULAR    0          0          0          0          1
M8M9             IRREGULAR    10.00      0          0          0          1
M9M10            IRREGULAR    10.00      0          0          0          1
M5M6             IRREGULAR    10.00      0          0          0          1
M6M7             IRREGULAR    10.00      0          0          0          1
M1M2             IRREGULAR    10.00      0          0          0          1
M2M3             IRREGULAR    10.00      0          0          0          1
M3M4             IRREGULAR    10.00      0          0          0          1
M2M6             IRREGULAR    10.00      0          0          0          1
M6M9             IRREGULAR    10.00      0          0          0          1
M9M12            IRREGULAR    10.00      0          0          0          1
M4M7             IRREGULAR    10.00      0          0          0          1
M7M10            IRREGULAR    10.00      0          0          0          1
M10M13           IRREGULAR    10.00      0          0          0          1
P2PH15           IRREGULAR    10.00      0          0          0          1
P2G25            IRREGULAR    10.00      0          0          0          1
P1P2             IRREGULAR    10.00      0          0          0          1
G312P1           IRREGULAR    10.00      0          0          0          1
PH12-0           IRREGULAR    10.00      0          0          0          1
PIPE1            CIRCULAR     1.20       0          0          0          1
PIPE2            CIRCULAR     1.20       0          0          0          1
PIPE3            CIRCULAR     1.65       0          0          0          1
PIPE4            CIRCULAR     1.95       0          0          0          1
PIPE5            CIRCULAR     2.10       0          0          0          1
PIPE6            CIRCULAR     2.10       0          0          0          1
30-00            CIRCULAR     0.90       0          0          0          1
G16-0            IRREGULAR    10.00      0          0          0          1
G15-5            IRREGULAR    10.00      0          0          0          1
G15-0            IRREGULAR    10.00      0          0          0          1
G14-0            IRREGULAR    10.00      0          0          0          1
G13-2            IRREGULAR    10.00      0          0          0          1
G13-1            IRREGULAR    10.00      0          0          0          1
G13-0            IRREGULAR    10.00      0          0          0          1
G12-0            IRREGULAR    10.00      0          0          0          1
G11-0            IRREGULAR    10.00      0          0          0          1
G10-5            IRREGULAR    10.00      0          0          0          1
G10-0            IRREGULAR    10.00      0          0          0          1
G7-0             IRREGULAR    10.00      0          0          0          1
G6-0             IRREGULAR    10.00      0          0          0          1
G5-2             IRREGULAR    10.00      0          0          0          1
G5-0             IRREGULAR    10.00      0          0          0          1
G4-34            IRREGULAR    10.00      0          0          0          1
G4-31            IRREGULAR    10.00      0          0          0          1
G4-305           IRREGULAR    10.00      0          0          0          1
G7-5             IRREGULAR    10.00      0          0          0          1
PORBC            RECT_CLOSED  2.50       3.30       0          0          3
OCTBC            RECT_CLOSED  3.00       10.40      0          0          1
CORNBC           RECT_CLOSED  2.10       3.97       0          0          3
PORTBC           RECT_CLOSED  2.10       3.97       0          0          3
M17181           IRREGULAR    12.00      0          0          0          1
G8-5             IRREGULAR    10.00      0          0          0          1
G4-2             IRREGULAR    10.00      0          0          0          1
611C3            IRREGULAR    10.00      0          0          0          1
C1C2             IRREGULAR    10.00      0          0          0          1
C2C3             IRREGULAR    10.00      0          0          0          1
C3612            IRREGULAR    10.00      0          0          0          1
G13-5            IRREGULAR    10.00      0          0          0          1
G12-5            IRREGULAR    10.00      0          0          0          1
STATBC           RECT_OPEN    0          50.00      0          0          
FITZBC           RECT_OPEN    0          0          0          0          
WEIR5            RECT_OPEN    0          180.00     0          0          
WEIR4            RECT_OPEN    0          100.00     0          0          
WEIR2            RECT_OPEN    0          90.00      0          0          
PIPE7            RECT_OPEN    0          40.00      0          0          
FWR1             RECT_OPEN    0          32.00      0          0          
WEIR6            RECT_OPEN    0          180.00     0          0          