;; SWMM5 .inp converted from XPSWMM .xp file
;; Generated by XPSWMM Card Reader
;; Source format: XP_CARD | Original title: (none)

[TITLE]
;;Project Title/Notes
Converted from XPSWMM .xp file

[OPTIONS]
FLOW_UNITS           CFS
INFILTRATION         HORTON
FLOW_ROUTING         DYNWAVE
LINK_OFFSETS         DEPTH
MIN_SLOPE            0.0
ALLOW_PONDING        NO
SKIP_STEADY_STATE    NO
ROUTING_STEP         00:00:05
VARIABLE_STEP        0.75
INERTIAL_DAMPING     PARTIAL
NORMAL_FLOW_LIMITED  BOTH
MAX_TRIALS           100
HEAD_TOLERANCE       0.0033

[JUNCTIONS]
;;Name           Elev       MaxDepth   InitDepth  SurDepth   Aponded
;;-------------- ---------- ---------- ---------- ---------- ----------
E31500A          600.00     0          0          0          0
OF_36Aly1E       598.80     0          0          0          0
OF_32Aly1E       598.80     0          0          0          0
C41507           610.00     0          0          0          0
C41504           607.00     0          0          0          0
C41501           607.00     0          0          0          0
C41488           608.00     0          0          0          0
C41487           607.00     0          0          0          0
C41486           608.00     0          0          0          0
C41484           610.00     0          0          0          0
C41483           607.00     0          0          0          0
C41292           602.00     0          0          0          0
C41290           600.00     0          0          0          0
C41261           600.10     0          0          0          0
C41276           606.00     0          0          0          0
C41188           600.00     0          0          0          0
C41252           601.00     0          0          0          0
C22728A          592.00     0          0          0          0
C2JCT3           598.00     0          0          0          0
C22735           596.00     0          0          0          0
C22733           594.00     0          0          0          0
C22727           598.00     0          0          0          0
C22726           598.00     0          0          0          0
C22725           597.00     0          0          0          0
C22745           595.00     0          0          0          0
C22742           595.00     0          0          0          0
C22741           596.00     0          0          0          0
C22740           596.00     0          0          0          0
C22739           596.00     0          0          0          0
C22738           595.00     0          0          0          0
C2JCT1           596.00     0          0          0          0
C22736           595.00     0          0          0          0
C22724           596.00     0          0          0          0
D41027A          596.00     0          0          0          0
D41025           596.00     0          0          0          0
D41023           594.00     0          0          0          0
D41022           594.00     0          0          0          0
D41032           597.00     0          0          0          0
D41057           597.00     0          0          0          0
D41110           596.00     0          0          0          0
D41059           599.00     0          0          0          0
D41093           598.60     0          0          0          0
D4JCT5           602.00     0          0          0          0
D40815           607.00     0          0          0          0
D40812           605.00     0          0          0          0
D40774           609.00     0          0          0          0
D40773           604.00     0          0          0          0
D40772           600.00     0          0          0          0
D41047           607.00     0          0          0          0
D41045           607.00     0          0          0          0
D41009           605.00     0          0          0          0
D41007           605.00     0          0          0          0
D40968           602.63     0          0          0          0
D40977           604.00     0          0          0          0
D40976           606.00     0          0          0          0
D40972           603.00     0          0          0          0
D40969           602.00     0          0          0          0
D40520           599.00     0          0          0          0
D40537           599.00     0          0          0          0
D40546           599.00     0          0          0          0
D40547           598.51     0          0          0          0
D40555           598.35     0          0          0          0
D41115           598.80     0          0          0          0
D41108           596.78     0          0          0          0
D40616A          609.00     0          0          0          0
D40643           613.00     0          0          0          0
D40754           605.00     0          0          0          0
D40686           603.00     0          0          0          0
D40697           604.00     0          0          0          0
D40702           603.00     0          0          0          0
D40713           604.00     0          0          0          0
D40718           603.00     0          0          0          0
D40735           604.00     0          0          0          0
D40767           599.00     0          0          0          0
D30084           599.00     0          0          0          0
D30083           599.00     0          0          0          0
D30072           600.00     0          0          0          0
D30071           599.00     0          0          0          0
D30058           600.00     0          0          0          0
D30057           600.00     0          0          0          0
D30050           600.00     0          0          0          0
D30422           600.13     0          0          0          0
D30452           600.00     0          0          0          0
D30420           600.04     0          0          0          0
D30261           600.07     0          0          0          0
D30262           600.00     0          0          0          0
D30260           599.00     0          0          0          0
D30243           599.00     0          0          0          0
D30242           599.00     0          0          0          0
D30225           599.00     0          0          0          0
D30224           599.00     0          0          0          0
D30208           599.00     0          0          0          0
D30207           599.00     0          0          0          0
D30280           601.00     0          0          0          0
D30281           601.00     0          0          0          0
D30304           600.00     0          0          0          0
D30305           600.00     0          0          0          0
D30324           600.00     0          0          0          0
D30325           600.00     0          0          0          0
D30073           600.00     0          0          0          0
D30074           601.00     0          0          0          0
D30506           603.00     0          0          0          0
D30512           603.00     0          0          0          0
D30523           602.00     0          0          0          0
D30530           600.00     0          0          0          0
D30542           601.00     0          0          0          0
D30546           601.00     0          0          0          0
D30491           607.00     0          0          0          0
D30496           608.00     0          0          0          0
D30498           607.00     0          0          0          0
D30553           601.00     0          0          0          0
D30556           600.00     0          0          0          0
D30547           600.00     0          0          0          0
D30576           603.00     0          0          0          0
D30575           602.00     0          0          0          0
D30574           602.00     0          0          0          0
D30572           601.00     0          0          0          0
D30569           600.00     0          0          0          0
D30568           600.00     0          0          0          0
D30176           601.00     0          0          0          0
D30579           607.00     0          0          0          0
D30680           602.00     0          0          0          0
D30709           606.00     0          0          0          0
D30684           603.00     0          0          0          0
D30683           602.00     0          0          0          0
D30682           601.00     0          0          0          0
D30678           600.00     0          0          0          0
D30696           606.00     0          0          0          0
D30667           606.00     0          0          0          0
D30623           606.00     0          0          0          0
D30615           606.00     0          0          0          0
D30594           606.00     0          0          0          0
D30709A          607.00     0          0          0          0
D30795           608.00     0          0          0          0
D30795A          608.00     0          0          0          0
D30792           603.00     0          0          0          0
D30751           602.00     0          0          0          0
D30747           602.00     0          0          0          0
D30746           603.00     0          0          0          0
D30727           603.00     0          0          0          0
D30806           608.00     0          0          0          0
D30811           610.00     0          0          0          0
D30812           612.00     0          0          0          0
D30813           614.00     0          0          0          0
C41278           600.00     0          0          0          0
C41286A          601.00     0          0          0          0
C41286B          603.00     0          0          0          0
C41596           604.00     0          0          0          0
C41597           606.00     0          0          0          0
C41598           606.00     0          0          0          0
C41599           604.00     0          0          0          0
C41595           602.00     0          0          0          0
C41396           602.00     0          0          0          0
C41415           602.00     0          0          0          0
C41446           602.00     0          0          0          0
C41467           602.00     0          0          0          0
C41561           601.83     0          0          0          0
C41581           602.08     0          0          0          0
C41747           602.00     0          0          0          0
C41687           604.00     0          0          0          0
C41667           604.00     0          0          0          0
C41644           605.00     0          0          0          0
C41626           603.00     0          0          0          0
C41613           603.00     0          0          0          0
C41605           600.00     0          0          0          0
C41321           599.00     0          0          0          0
C41366           599.00     0          0          0          0
C41416           599.00     0          0          0          0
C41440           600.00     0          0          0          0
C41473           599.44     0          0          0          0
C41473A          599.32     0          0          0          0
C41567           599.20     0          0          0          0
C41574           599.00     0          0          0          0
C41610           610.00     0          0          0          0
C41630           601.00     0          0          0          0
C41608           599.01     0          0          0          0
C41609           599.37     0          0          0          0
C41616           606.00     0          0          0          0
C41617A          602.00     0          0          0          0
C41289           601.00     0          0          0          0
C41543           601.00     0          0          0          0
C41518           604.00     0          0          0          0
C41519           600.00     0          0          0          0
C41520           602.00     0          0          0          0
C41521           598.00     0          0          0          0
C41571           598.00     0          0          0          0
C41570           597.00     0          0          0          0
C41476           598.00     0          0          0          0
C41363           598.00     0          0          0          0
C41390           598.00     0          0          0          0
C41437           598.00     0          0          0          0
C41419           598.00     0          0          0          0
C41328           599.00     0          0          0          0
C41771           603.00     0          0          0          0
C41770           603.00     0          0          0          0
C41765           603.00     0          0          0          0
C41782           602.00     0          0          0          0
C41788           603.00     0          0          0          0
C41753           601.00     0          0          0          0
C41752           602.00     0          0          0          0
C41722           603.00     0          0          0          0
C41721           602.62     0          0          0          0
C41678           601.53     0          0          0          0
C41676           600.00     0          0          0          0
C41635           599.00     0          0          0          0
C41633           600.00     0          0          0          0
C41750           600.92     0          0          0          0
C41421           599.00     0          0          0          0
C41361           598.00     0          0          0          0
C41356           599.00     0          0          0          0
C41333           599.00     0          0          0          0
C41325           599.00     0          0          0          0
C41311           602.00     0          0          0          0
C41299           605.00     0          0          0          0
C41516           603.00     0          0          0          0
C41515           602.00     0          0          0          0
C41513           599.00     0          0          0          0
C41512           601.00     0          0          0          0
C41511           601.00     0          0          0          0
C31389           599.00     0          0          0          0
C31389B          599.00     0          0          0          0
C31392           599.00     0          0          0          0
C31406           599.00     0          0          0          0
C31459           598.00     0          0          0          0
C31527           598.00     0          0          0          0
C31549           598.00     0          0          0          0
C31621           598.00     0          0          0          0
C31650           598.00     0          0          0          0
C31652A          598.00     0          0          0          0
C31617           598.00     0          0          0          0
C31461           598.00     0          0          0          0
C31478           599.00     0          0          0          0
C31475           598.00     0          0          0          0
C31460           598.08     0          0          0          0
C31457           599.00     0          0          0          0
C31480           597.00     0          0          0          0
C31524           597.00     0          0          0          0
C31554           598.00     0          0          0          0
C31653           598.00     0          0          0          0
C31712           598.00     0          0          0          0
C31746           597.00     0          0          0          0
C31807           598.00     0          0          0          0
C31806           597.00     0          0          0          0
C31744           599.00     0          0          0          0
C31808           597.00     0          0          0          0
C31809           597.00     0          0          0          0
C31828           597.00     0          0          0          0
C32207           596.00     0          0          0          0
C32231           595.00     0          0          0          0
C32233           595.00     0          0          0          0
C32206           597.00     0          0          0          0
C32267           595.00     0          0          0          0
C32282           596.00     0          0          0          0
C32286           596.00     0          0          0          0
C32287           596.00     0          0          0          0
C32288           597.00     0          0          0          0
C32290           597.00     0          0          0          0
C32338           596.00     0          0          0          0
C32365           595.00     0          0          0          0
C32387           597.00     0          0          0          0
C32388           596.00     0          0          0          0
C32415           596.00     0          0          0          0
C32416           597.00     0          0          0          0
C32459           596.00     0          0          0          0
C32457           596.00     0          0          0          0
C32465           597.00     0          0          0          0
C32487           598.00     0          0          0          0
C32571           596.00     0          0          0          0
C32485           597.00     0          0          0          0
C32482           597.00     0          0          0          0
C32424           596.00     0          0          0          0
C32436           596.00     0          0          0          0
C32439           597.00     0          0          0          0
C32473           597.00     0          0          0          0
C32515           597.00     0          0          0          0
C32509           597.00     0          0          0          0
C31506           598.00     0          0          0          0
C31507           599.00     0          0          0          0
C31510           599.00     0          0          0          0
C31511           599.00     0          0          0          0
C31672           599.00     0          0          0          0
C31683           599.00     0          0          0          0
C31593           599.00     0          0          0          0
C31573           600.00     0          0          0          0
C31498           599.00     0          0          0          0
C31500           599.00     0          0          0          0
C31432           601.00     0          0          0          0
C31433           601.00     0          0          0          0
C31434           599.00     0          0          0          0
C31290           600.00     0          0          0          0
C31293           600.00     0          0          0          0
C31295           601.00     0          0          0          0
C31297           600.00     0          0          0          0
C31351           599.00     0          0          0          0
C31599           601.00     0          0          0          0
C31610           602.00     0          0          0          0
C31416           600.00     0          0          0          0
C31418           603.00     0          0          0          0
C31381           602.00     0          0          0          0
C31453           600.00     0          0          0          0
C31518           600.00     0          0          0          0
C31560A          600.00     0          0          0          0
C31609           602.00     0          0          0          0
C31705           601.00     0          0          0          0
C31661           601.00     0          0          0          0
C31800A          600.00     0          0          0          0
C31799           600.00     0          0          0          0
C32198           597.00     0          0          0          0
C32242           596.00     0          0          0          0
C32256           597.00     0          0          0          0
C32293           598.00     0          0          0          0
C32325           598.00     0          0          0          0
C32331           597.00     0          0          0          0
C32534           598.00     0          0          0          0
C32546           598.00     0          0          0          0
D40993           593.00     0          0          0          0
D40991           594.00     0          0          0          0
D40639           613.00     0          0          0          0
D20939           599.00     0          0          0          0
D20894           598.00     0          0          0          0
D21040           595.00     0          0          0          0
D21025           596.00     0          0          0          0
D21063           594.00     0          0          0          0
D20955           596.00     0          0          0          0
D20944           598.00     0          0          0          0
D20940           600.00     0          0          0          0
D21076           601.00     0          0          0          0
D21078           601.00     0          0          0          0
D21079           601.00     0          0          0          0
D21080           601.00     0          0          0          0
D20950D          596.00     0          0          0          0
D23433           602.00     0          0          0          0
D23331           613.00     0          0          0          0
D23333           617.00     0          0          0          0
D23343           609.00     0          0          0          0
D23344A          606.00     0          0          0          0
D23344D          604.00     0          0          0          0
D21143           608.00     0          0          0          0
D21144           608.00     0          0          0          0
D21148           606.00     0          0          0          0
D21154           605.00     0          0          0          0
D21118           605.00     0          0          0          0
D21117           606.00     0          0          0          0
D20923           597.00     0          0          0          0
D20913           597.00     0          0          0          0
D20899A          596.00     0          0          0          0
D20904           596.00     0          0          0          0
D20883           598.00     0          0          0          0
D20877           596.00     0          0          0          0
D20875           597.00     0          0          0          0
D20863           598.00     0          0          0          0
D20854           598.00     0          0          0          0
C32132           600.00     0          0          0          0
C32100a          598.00     0          0          0          0
C32608           597.00     0          0          0          0
C32665           598.00     0          0          0          0
C32613           595.00     0          0          0          0
C32616           595.00     0          0          0          0
C32584           596.00     0          0          0          0
C32630           595.00     0          0          0          0
C32632           596.00     0          0          0          0
C32635           597.00     0          0          0          0
C32656           598.00     0          0          0          0
C32667           597.00     0          0          0          0
C32073           598.00     0          0          0          0
C32095           596.00     0          0          0          0
C32107           598.00     0          0          0          0
C32051           599.00     0          0          0          0
C32038           598.00     0          0          0          0
C31916           599.00     0          0          0          0
C31990A          599.00     0          0          0          0
C32000           599.00     0          0          0          0
C32017A          599.00     0          0          0          0
C32124A          599.00     0          0          0          0
C32124           597.00     0          0          0          0
C32141A          598.00     0          0          0          0
C32128           597.00     0          0          0          0
C32129A          596.00     0          0          0          0
C32106           598.00     0          0          0          0
C32139           598.00     0          0          0          0
C32133           599.00     0          0          0          0
C32708           597.00     0          0          0          0
C3REGLTR2        592.00     0          0          0          0
C32480           597.00     0          0          0          0
C32699           600.00     0          0          0          0
C32695           599.28     0          0          0          0
C32694           599.00     0          0          0          0
C32693           602.00     0          0          0          0
C41189           599.00     0          0          0          0
C41190           599.00     0          0          0          0
C41191           599.00     0          0          0          0
C41192           599.00     0          0          0          0
C41193           599.00     0          0          0          0
C41188A          602.00     0          0          0          0
D40519           600.00     0          0          0          0
D31035           600.00     0          0          0          0
D31000           600.00     0          0          0          0
D31008           600.00     0          0          0          0
D31009           600.00     0          0          0          0
D31020           600.00     0          0          0          0
D31021           600.00     0          0          0          0
D310234          600.00     0          0          0          0
D31029           600.00     0          0          0          0
D31032           600.00     0          0          0          0
D31038           600.00     0          0          0          0
D31042           600.00     0          0          0          0
D31040           600.00     0          0          0          0
D31044           600.00     0          0          0          0
D31001           600.00     0          0          0          0
D24002           602.68     0          0          0          0
D24027           607.00     0          0          0          0
D24007           608.00     0          0          0          0
D24037           610.00     0          0          0          0
D24036           610.00     0          0          0          0
D340038          610.00     0          0          0          0
D24004           602.00     0          0          0          0
D240043          609.00     0          0          0          0
D24039           601.00     0          0          0          0
OUTFALL009       599.00     0          0          0          0
OF008            598.00     0          0          0          0
w1_nd            599.00     0          0          0          0
chs_sg           598.00     0          0          0          0
w2_out           600.00     0          0          0          0
ch_rv_out        600.00     0          0          0          0
brg_sg           592.00     0          0          0          0
brg_otf          592.00     0          0          0          0
prc_weir         600.00     0          0          0          0
prc_riv          600.00     0          0          0          0
pk_rg_nd         599.00     0          0          0          0
pk_wr_nd         599.00     0          0          0          0
pk_ot_nd         599.00     0          0          0          0
2156             603.00     0          0          0          0
2159             600.00     0          0          0          0
2162             600.00     0          0          0          0
2163             600.00     0          0          0          0
2166             600.00     0          0          0          0
2167             600.00     0          0          0          0
2170             603.00     0          0          0          0
2206             596.00     0          0          0          0
C23156           596.00     0          0          0          0
C23158           598.00     0          0          0          0
C22938           595.00     0          0          0          0
C22937           593.00     0          0          0          0
C22930           592.00     0          0          0          0
C22919           592.00     0          0          0          0
C22753           595.00     0          0          0          0
C22755           591.00     0          0          0          0
C22789           593.00     0          0          0          0
C22790           595.00     0          0          0          0
C22807           595.00     0          0          0          0
C22809           594.00     0          0          0          0
C22828           593.00     0          0          0          0
C22830           593.00     0          0          0          0
C23053           593.00     0          0          0          0
C23051           593.00     0          0          0          0
C23024           593.00     0          0          0          0
C22824           590.00     0          0          0          0
C22826           591.00     0          0          0          0
C22869           593.00     0          0          0          0
C22870           592.00     0          0          0          0
C22872           591.00     0          0          0          0
C22894           593.00     0          0          0          0
C22895           592.00     0          0          0          0
C22753A          592.00     0          0          0          0
C22921           592.00     0          0          0          0