;; SWMM5 .inp converted from XPSWMM .xp file
;; Generated by XPSWMM Card Reader
;; Source format: XP_CARD | Original title: CORVALLIS CSO - St Patrick

[TITLE]
;;Project Title/Notes
CORVALLIS CSO - St Patrick

[OPTIONS]
FLOW_UNITS           CFS
INFILTRATION         HORTON
FLOW_ROUTING         DYNWAVE
LINK_OFFSETS         DEPTH
MIN_SLOPE            0.0
ALLOW_PONDING        NO
SKIP_STEADY_STATE    NO
ROUTING_STEP         00:00:60
VARIABLE_STEP        0.75
INERTIAL_DAMPING     PARTIAL
NORMAL_FLOW_LIMITED  BOTH
MAX_TRIALS           50
HEAD_TOLERANCE       0.0033

[JUNCTIONS]
;;Name           Elev       MaxDepth   InitDepth  SurDepth   Aponded
;;-------------- ---------- ---------- ---------- ---------- ----------
J21              227.00     0          0          0          0
J20              228.20     0          0          0          0
J19              227.90     0          0          0          0
J18              227.60     0          0          0          0
J16              227.10     0          0          0          0
J15              226.60     0          0          0          0
J14              226.50     0          0          0          0
J13              217.00     0          0          0          0
J12              228.20     0          0          0          0
J11              229.00     0          0          0          0
J10              229.60     0          0          0          0
V21              227.60     0          0          0          0
V20              227.60     0          0          0          0
V19              226.90     0          0          0          0
V18              225.20     0          0          0          0
V17              224.50     0          0          0          0
V16              224.70     0          0          0          0
V15              225.30     0          0          0          0
V14              224.60     0          0          0          0
V13              223.50     0          0          0          0
V12              224.90     0          0          0          0
V11              223.90     0          0          0          0
V10              223.10     0          0          0          0
I42              220.00     0          0          0          0
I41              219.00     0          0          0          0
I40              222.00     0          0          0          0
I39              223.00     0          0          0          0
I38              224.00     0          0          0          0
I37              220.00     0          0          0          0
I36              221.00     0          0          0          0
I35              225.00     0          0          0          0
I34              229.00     0          0          0          0
I33              228.00     0          0          0          0
I32              225.00     0          0          0          0
I31              228.00     0          0          0          0
I29              216.00     0          0          0          0
I26              222.00     0          0          0          0
I25              228.20     0          0          0          0
I24              228.60     0          0          0          0
I23              229.20     0          0          0          0
I21              228.80     0          0          0          0
I20              228.40     0          0          0          0
I17              223.40     0          0          0          0
I16              222.60     0          0          0          0
I14              220.00     0          0          0          0
I12              217.50     0          0          0          0
I11              216.00     0          0          0          0
I10              221.00     0          0          0          0
W19              226.00     0          0          0          0
W18              228.80     0          0          0          0
W17              228.00     0          0          0          0
W16              227.40     0          0          0          0
W15              228.00     0          0          0          0
W14              228.00     0          0          0          0
W13              228.60     0          0          0          0
W12              228.60     0          0          0          0
W11              223.00     0          0          0          0
A19              223.00     0          0          0          0
A18              224.00     0          0          0          0
A17              223.00     0          0          0          0
A16              226.00     0          0          0          0
A15              226.00     0          0          0          0
A14              226.00     0          0          0          0
A13              226.00     0          0          0          0
A12              228.00     0          0          0          0
A11              228.50     0          0          0          0
F17              222.00     0          0          0          0
F16              223.00     0          0          0          0
F15              220.00     0          0          0          0
F14              217.00     0          0          0          0
F13              225.00     0          0          0          0
F12              227.00     0          0          0          0
F11              226.00     0          0          0          0
F10              228.00     0          0          0          0
Fillmore         220.00     0          0          0          0
Michaels         220.00     0          0          0          0
VanBuren         220.00     0          0          0          0
Jackson          220.00     0          0          0          0
Western          220.00     0          0          0          0
I13              219.00     0          0          0          0
F09              239.60     0          0          0          0
I18              223.40     0          0          0          0
V09              220.00     0          0          0          0
A09              248.00     0          0          0          0
W09              238.00     0          0          0          0

[STORAGE]
;;Name           Elev       MaxDepth   InitDepth  Shape      Curve/Params
;;-------------- ---------- ---------- ---------- ---------- ----------
J17              236.70     0          0          FUNCTIONAL 200.00 0          0
I22              249.00     0          0          FUNCTIONAL 300.00 0          0
VOS              243.40     0          0          FUNCTIONAL 300.00 0          0
I43              222.00     0          0          FUNCTIONAL 300.00 0          0
I30              221.00     0          0          FUNCTIONAL 300.00 0          0
I28              238.50     -0.50      0          FUNCTIONAL 300.00 0          0
I19              248.00     0          0          FUNCTIONAL 300.00 0          0
I15              228.20     0          0          FUNCTIONAL 200.00 0          0
FOS              239.60     0          0          FUNCTIONAL 300.00 0          0
I02              221.00     0          0          FUNCTIONAL 300.00 0          0
I01              219.00     0          0          FUNCTIONAL 300.00 0          0
JOS              248.00     0          0          FUNCTIONAL 200.00 0          0
WOS              222.00     0          0          FUNCTIONAL 200.00 0          0

[CONDUITS]
;;Name           From             To               Length     Roughness  InOffset   OutOffset  InitFlow   MaxFlow
;;-------------- ---------------- ---------------- ---------- ---------- ---------- ---------- ---------- ----------
J021             J21              J20              296.00     0.0130     219.00     217.93     0          0
J020             J20              J19              290.00     0.0130     217.50     216.14     0          0
J019             J19              J18              291.00     0.0130     216.00     214.71     0          0
J018             J18              J17              293.00     0.0130     214.30     212.68     0          0
J017             J17              J16              129.00     0.0130     212.60     212.03     0          0
J016             J16              J15              74.70      0.0130     211.90     211.59     0          0
J015             J15              J14              92.00      0.0130     211.30     211.00     0          0
J014             J14              J13              302.00     0.0130     211.00     210.00     0          0
J013             J13              J12              289.00     0.0130     210.00     209.00     0          0
J012             J12              J11              263.00     0.0130     209.00     208.10     0          0
J011             J11              J10              330.00     0.0130     208.10     207.00     0          0
J010             J10              I22              130.00     0.0130     207.00     205.60     0          0
V021             V21              V20              116.00     0.0130     221.30     220.70     0          0
V020             V20              V19              299.00     0.0130     220.60     218.60     0          0
V019             V19              V18              296.00     0.0130     218.50     216.39     0          0
V018             V18              V17              109.00     0.0130     215.70     215.24     0          0
V017             V17              V16              240.00     0.0065     215.10     214.53     0          0
V016             V16              V15              123.00     0.0130     214.50     214.10     0          0
V015             V15              V14              293.00     0.0130     214.00     212.32     0          0
V014             V14              V13              289.00     0.0130     212.20     210.70     0          0
V013             V13              V12              293.00     0.0130     210.60     208.80     0          0
V012             V12              V11              296.00     0.0130     208.70     206.41     0          0
V011             V11              V10              113.00     0.0130     206.30     205.50     0          0
V010             V10              VOS              100.00     0.0065     205.50     204.80     0          0
I043             I43              I42              115.00     0.0130     213.20     213.00     0          0
I042             I42              I41              359.00     0.0130     213.00     212.40     0          0
I041             I41              I40              412.00     0.0130     212.40     211.80     0          0
I040             I40              I39              240.00     0.0130     211.80     211.40     0          0
I039             I39              I38              340.00     0.0130     211.40     210.80     0          0
I038             I38              I37              370.00     0.0130     210.80     210.20     0          0
I037             I37              I36              340.00     0.0130     210.20     209.70     0          0
I036             I36              I35              274.00     0.0130     209.70     209.30     0          0
I035             I35              I34              304.00     0.0130     209.30     208.80     0          0
I034             I34              I33              350.00     0.0130     208.80     208.20     0          0
I033             I33              I32              410.00     0.0130     208.20     207.60     0          0
I032             I32              I31              128.00     0.0130     207.50     207.20     0          0
I031             I31              I30              486.00     0.0130     207.10     206.40     0          0
I030             I30              I29              847.00     0.0130     206.30     204.20     0          0
I029             I29              I28              243.00     0.0130     204.10     203.40     0          0
I028             I28              I26              168.00     0.0065     203.40     203.00     0          0
I026             I26              I25              325.00     0.0130     203.00     202.30     0          0
I025             I25              I24              371.00     0.0130     202.30     201.50     0          0
I024             I24              I23              380.00     0.0130     201.50     201.20     0          0
I023             I23              I22              120.00     0.0065     201.20     200.60     0          0
I022             I22              I21              376.00     0.0130     200.60     199.90     0          0
I021             I21              I20              391.00     0.0130     199.90     198.93     0          0
I020             I20              I19              348.00     0.0130     198.93     198.13     0          0
I019             I19              I18              447.00     0.0130     198.13     197.10     0          0
I018             I18              I17              342.00     0.0130     196.60     195.92     0          0
I017             I17              I16              380.00     0.0130     195.92     195.16     0          0
I016             I16              I15              504.00     0.0130     195.16     194.15     0          0
I015             I15              I14              297.00     0.0130     194.15     193.56     0          0
I014             I14              I13              287.00     0.0130     193.56     192.97     0          0
I013             I13              I12              420.00     0.0130     192.97     192.30     0          0
I012             I12              I11              510.00     0.0130     192.80     191.50     0          0
I011             I11              I10              430.00     0.0130     191.50     190.50     0          0
I010             I10              I02              505.00     0.0130     190.50     188.70     0          0
I002             I02              I01              1180.00    0.0065     188.70     188.00     0          0
W019             W19              W18              425.00     0.0130     211.10     209.80     0          0
W018             W18              W17              280.00     0.0130     209.80     209.00     0          0
W017             W17              W16              190.00     0.0130     209.00     208.40     0          0
W016             W16              W15              300.00     0.0130     208.40     207.50     0          0
W015             W15              W14              300.00     0.0130     207.50     206.60     0          0
W014             W14              W13              300.00     0.0130     206.60     205.70     0          0
W013             W13              W12              290.00     0.0130     205.70     204.80     0          0
W012             W12              W11              300.00     0.0130     204.80     203.90     0          0
W011             W11              WOS              158.00     0.0130     203.90     203.53     0          0
A019             A19              A18              300.00     0.0130     215.10     213.60     0          0
A018             A18              A17              293.00     0.0130     213.60     212.20     0          0
A017             A17              A16              297.00     0.0130     212.20     210.70     0          0
A016             A16              A15              295.00     0.0130     210.70     209.20     0          0
A015             A15              A14              295.00     0.0130     209.20     207.70     0          0
A014             A14              A13              295.00     0.0130     207.70     206.30     0          0
A013             A13              A12              295.00     0.0130     206.30     204.80     0          0
A012             A12              A11              295.00     0.0130     204.80     203.30     0          0
A011             A11              JOS              140.00     0.0130     203.30     202.25     0          0
F017             F17              F16              220.00     0.0130     204.40     203.70     0          0
F016             F16              F15              260.00     0.0130     203.70     202.90     0          0
F015             F15              F14              230.00     0.0130     202.90     202.30     0          0
F014             F14              F13              270.00     0.0130     202.30     201.40     0          0
F013             F13              F12              310.00     0.0130     201.40     200.50     0          0
F012             F12              F11              280.00     0.0130     200.50     199.70     0          0
F011             F11              F10              280.00     0.0130     199.70     198.80     0          0
F010             F10              FOS              290.00     0.0130     198.80     197.58     0          0
Mich_OF          I15              Michaels         30.00      0.0043     198.15     197.15     0          0
Fill_of          F09              Fillmore         100.00     0.0140     198.50     197.00     0          0
Van_OF           V09              VanBuren         200.00     0.0140     203.00     199.00     0          0
Jack_of          A09              Jackson          200.00     0.0140     202.00     200.00     0          0
West_OF          W09              Western          150.00     0.0140     203.40     202.00     0          0

[ORIFICES]
;;Name           From             To               Type       Offset     Qcoeff     Gated    CloseTime
;;-------------- ---------------- ---------------- ---------- ---------- ---------- -------- ----------
FOrf             FOS              I13              SIDE       0          0.650      NO       0
394              ?                ?                SIDE       0          0.650      NO       0
JOrf             JOS              I19              SIDE       0          0.650      NO       0
WOrf             WOS              I28              SIDE       0          0.650      NO       0

[WEIRS]
;;Name           From             To               Type       CrestHt    Qcoeff     Gated    EndCon   EndCoeff   Surcharge
;;-------------- ---------------- ---------------- ---------- ---------- ---------- -------- -------- ---------- ----------
A010             JOS              A09              TRANSVERSE 204.98     1.840      NO       0        0          YES
W010             WOS              W09              TRANSVERSE 208.81     1.840      NO       0        0          YES
FillDam          FOS              F09              TRANSVERSE 198.60     1.840      NO       0        0          YES
393              ?                ?                TRANSVERSE 207.14     1.840      NO       0        0          YES

[XSECTIONS]
;;Link           Shape        Geom1      Geom2      Geom3      Geom4      Barrels
;;-------------- ------------ ---------- ---------- ---------- ---------- ----------
J021             CIRCULAR     0.83       0          0          0          1
J020             CIRCULAR     1.00       0          0          0          1
J019             CIRCULAR     1.00       0          0          0          1
J018             CIRCULAR     1.25       0          0          0          1
J017             CIRCULAR     1.25       0          0          0          1
J016             CIRCULAR     1.33       0          0          0          1
J015             CIRCULAR     1.50       0          0          0          1
J014             CIRCULAR     1.50       0          0          0          1
J013             CIRCULAR     1.50       0          0          0          1
J012             CIRCULAR     1.50       0          0          0          1
J011             CIRCULAR     1.50       0          0          0          1
J010             CIRCULAR     1.50       0          0          0          1
V021             CIRCULAR     1.00       0          0          0          1
V020             CIRCULAR     1.00       0          0          0          1
V019             CIRCULAR     1.00       0          0          0          1
V018             CIRCULAR     1.50       0          0          0          1
V017             CIRCULAR     1.50       0          0          0          1
V016             CIRCULAR     1.50       0          0          0          1
V015             CIRCULAR     1.50       0          0          0          1
V014             CIRCULAR     1.50       0          0          0          1
V013             CIRCULAR     1.50       0          0          0          1
V012             CIRCULAR     1.50       0          0          0          1
V011             CIRCULAR     1.50       0          0          0          1
V010             CIRCULAR     1.50       0          0          0          1
I043             CIRCULAR     2.50       0          0          0          1
I042             CIRCULAR     2.50       0          0          0          1
I041             CIRCULAR     2.50       0          0          0          1
I040             CIRCULAR     2.50       0          0          0          1
I039             CIRCULAR     2.50       0          0          0          1
I038             CIRCULAR     2.50       0          0          0          1
I037             CIRCULAR     2.50       0          0          0          1
I036             CIRCULAR     2.50       0          0          0          1
I035             CIRCULAR     2.50       0          0          0          1
I034             CIRCULAR     2.50       0          0          0          1
I033             CIRCULAR     2.50       0          0          0          1
I032             CIRCULAR     2.50       0          0          0          1
I031             CIRCULAR     2.50       0          0          0          1
I030             CIRCULAR     2.50       0          0          0          1
I029             CIRCULAR     2.50       0          0          0          1
I028             CIRCULAR     2.50       0          0          0          1
I026             CIRCULAR     2.50       0          0          0          1
I025             CIRCULAR     2.50       0          0          0          1
I024             CIRCULAR     2.50       0          0          0          1
I023             CIRCULAR     2.50       0          0          0          1
I022             CIRCULAR     2.50       0          0          0          1
I021             CIRCULAR     2.50       0          0          0          1
I020             CIRCULAR     2.50       0          0          0          1
I019             CIRCULAR     2.50       2.50       0          0          1
I018             CIRCULAR     3.00       0          0          0          1
I017             CIRCULAR     3.00       0          0          0          1
I016             CIRCULAR     3.00       0          0          0          1
I015             CIRCULAR     3.00       0          0          0          1
I014             CIRCULAR     3.00       2.50       0          0          1
I013             CIRCULAR     3.00       0          0          0          1
I012             CIRCULAR     3.00       0          0          0          1
I011             CIRCULAR     3.00       0          0          0          1
I010             CIRCULAR     3.50       0          0          0          1
I002             CIRCULAR     4.50       0          0          0          1
W019             CIRCULAR     3.70       0          0          0          1
W018             CIRCULAR     3.70       0          0          0          1
W017             CIRCULAR     3.70       0          0          0          1
W016             CIRCULAR     3.70       0          0          0          1
W015             CIRCULAR     3.90       0          0          0          1
W014             CIRCULAR     4.00       0          0          0          1
W013             CIRCULAR     4.00       0          0          0          1
W012             CIRCULAR     4.10       0          0          0          1
W011             CIRCULAR     4.10       0          0          0          1
A019             CIRCULAR     0.83       0          0          0          1
A018             CIRCULAR     1.00       0          0          0          1
A017             CIRCULAR     1.25       0          0          0          1
A016             CIRCULAR     1.50       0          0          0          1
A015             CIRCULAR     1.75       0          0          0          1
A014             CIRCULAR     1.75       0          0          0          1
A013             CIRCULAR     2.00       0          0          0          1
A012             CIRCULAR     2.25       0          0          0          1
A011             CIRCULAR     2.50       0          0          0          1
F017             HORSESHOE    6.30       0          0          0          1
F016             HORSESHOE    6.30       0          0          0          1
F015             HORSESHOE    6.30       0          0          0          1
F014             HORSESHOE    6.30       0          0          0          1
F013             HORSESHOE    6.30       0          0          0          1
F012             HORSESHOE    6.30       0          0          0          1
F011             HORSESHOE    6.30       0          0          0          1
F010             HORSESHOE    6.30       0          0          0          1
Mich_OF          CIRCULAR     2.00       0          0          0          1
Fill_of          CIRCULAR     5.00       6.00       0          0          1
Van_OF           CIRCULAR     5.00       5.00       0          0          1
Jack_of          CIRCULAR     3.00       3.00       0          0          1
West_OF          CIRCULAR     3.00       0          0          0          1
FOrf             RECT_CLOSED  2.50       0          0          0          
394              RECT_CLOSED  0          0          0          0          
JOrf             RECT_CLOSED  3.00       0          0          0          
WOrf             RECT_CLOSED  2.50       0          0          0          
A010             RECT_OPEN    0          4.00       0          0          
W010             RECT_OPEN    0          6.00       0          0          
FillDam          RECT_OPEN    0          6.00       0          0          
393              RECT_OPEN    0          4.00       0          0          

[LOSSES]
;;Link           Inlet      Outlet     Average    Flap Gate
;;-------------- ---------- ---------- ---------- ----------
J021             0          0          0          NO
J020             0          0          0          NO
J019             0          0          0          NO
J018             0          0          0          NO
J017             0          0          0          NO
J016             0          0          0          NO
J015             0          0          0          NO
J014             0          0          0          NO
J013             0          0          0          NO
J012             0          0          0          NO
J011             0          0          0          NO
J010             0          0          0          NO
V021             0          0          0          NO
V020             0          0          0          NO
V019             0          0          0          NO
V018             0          0          0          NO
V017             0          0          0          NO
V016             0          0          0          NO
V015             0          0          0          NO
V014             0          0          0          NO
V013             0          0          0          NO
V012             0          0          0          NO
V011             0          0          0          NO
V010             0          0          0          NO
I043             0          0          0          NO
I042             0          0          0          NO
I041             0          0          0          NO
I040             0          0          0          NO
I039             0          0          0          NO
I038             0          0          0          NO
I037             0          0          0          NO
I036             0          0          0          NO
I035             0          0          0          NO
I034             0          0          0          NO
I033             0          0          0          NO
I032             0          0          0          NO
I031             0          0          0          NO
I030             0          0          0          NO
I029             0          0          0          NO
I028             0          0          0          NO
I026             0          0          0          NO
I025             0          0          0          NO
I024             0          0          0          NO
I023             0          0          0          NO
I022             0          0          0          NO
I021             0          0          0          NO
I020             0          0          0          NO
I019             0          0          0          NO
I018             0          0          0          NO
I017             0          0          0          NO
I016             0          0          0          NO
I015             0          0          0          NO
I014             0          0          0          NO
I013             0          0          0          NO
I012             0          0          0          NO
I011             0          0          0          NO
I010             0          0          0          NO
I002             0          0          0          NO
W019             0          0          0          NO
W018             0          0          0          NO
W017             0          0          0          NO
W016             0          0          0          NO
W015             0          0          0          NO
W014             0          0          0          NO
W013             0          0          0          NO
W012             0          0          0          NO
W011             0          0          0          NO
A019             0          0          0          NO
A018             0          0          0          NO
A017             0          0          0          NO
A016             0          0          0          NO
A015             0          0          0          NO