;; SWMM5 .inp converted from XPSWMM .xp file
;; Generated by XPSWMM Card Reader
;; Source format: XP_CARD | Original title: AMAZON CREEK BASIN STORM DRAINAGE MODEL

[TITLE]
;;Project Title/Notes
AMAZON CREEK BASIN STORM DRAINAGE MODEL

[OPTIONS]
FLOW_UNITS           CFS
INFILTRATION         HORTON
FLOW_ROUTING         DYNWAVE
LINK_OFFSETS         DEPTH
MIN_SLOPE            0.0
ALLOW_PONDING        NO
SKIP_STEADY_STATE    NO
ROUTING_STEP         00:00:15
VARIABLE_STEP        0.75
INERTIAL_DAMPING     PARTIAL
NORMAL_FLOW_LIMITED  BOTH
MAX_TRIALS           50
HEAD_TOLERANCE       0.0033

[JUNCTIONS]
;;Name           Elev       MaxDepth   InitDepth  SurDepth   Aponded
;;-------------- ---------- ---------- ---------- ---------- ----------
65392            561.40     0          0          0          0
65295            533.80     0          0          0          0
66776            523.50     0          0          0          0
65344            518.10     0          0          0          0
66656            517.80     0          0          0          0
67175            517.80     0          0          0          0
65379            517.80     0          0          0          0
65396            476.40     0          0          0          0
65398            476.40     0          0          0          0
65370            466.40     0          0          0          0
65310            478.80     0          0          0          0
50602            518.00     0          0          0          0
50739            550.00     0          0          0          0
67978            456.28     0          0          0          0
50517            456.28     0          0          0          0
65582            662.00     0          0          0          0
65601            550.80     0          0          0          0
50200            542.00     0          0          0          0
50671            530.80     0          0          0          0
50653            487.50     0          0          0          0
50090            567.22     0          0          0          0
50238            567.22     0          0          0          0
50110            605.00     0          0          0          0
50109            605.00     0          0          0          0
66910            628.25     0          0          0          0
50108            628.25     0          0          0          0
50130            672.00     0          0          0          0
50129            672.00     0          0          0          0
71047            659.65     0          0          0          0
50544            451.10     0          0          0          0
66944            446.30     0          0          0          0
51850            446.50     0          0          0          0
66678            448.00     0          0          0          0
51763            449.00     0          0          0          0
50531            491.50     0          0          0          0
50660            501.20     0          0          0          0
51729            440.90     0          0          0          0
51730            440.50     0          0          0          0
51841            449.80     0          0          0          0
68653            452.00     0          0          0          0
51296            486.00     0          0          0          0
66447            489.20     0          0          0          0
51285            509.00     0          0          0          0
68670            514.70     0          0          0          0
68668            514.00     0          0          0          0
51271            523.00     0          0          0          0
51284            533.00     0          0          0          0
51256            540.00     0          0          0          0
51239            546.00     0          0          0          0
51204            589.90     0          0          0          0
50107            606.00     0          0          0          0
50163            630.40     0          0          0          0
50115            608.60     0          0          0          0
51757            439.60     0          0          0          0
51751            438.10     0          0          0          0
51750            438.10     0          0          0          0
71000            442.31     0          0          0          0
71001            442.31     0          0          0          0
71051            435.90     0          0          0          0
71052            435.90     0          0          0          0
51964            433.50     0          0          0          0
51963            437.00     0          0          0          0
51344            455.00     0          0          0          0
51302            445.00     0          0          0          0
51303            442.00     0          0          0          0
68667            437.80     0          0          0          0
51305            440.60     0          0          0          0
51306            440.00     0          0          0          0
51307            437.00     0          0          0          0
51309            442.00     0          0          0          0
66460            435.00     0          0          0          0
54362            433.10     0          0          0          0
66967            0          0          0          0          0
51961            435.00     0          0          0          0
54175            0          0          0          0          0
54174            0          0          0          0          0
54172            0          0          0          0          0
54330            429.80     0          0          0          0
54353            428.10     0          0          0          0
66486            449.20     0          0          0          0
54335            430.80     0          0          0          0
54325            452.20     0          0          0          0
54271            462.60     0          0          0          0
54254            465.30     0          0          0          0
54295            446.00     0          0          0          0
54267            454.00     0          0          0          0
54260            482.80     0          0          0          0
51437            557.50     0          0          0          0
51411            534.90     0          0          0          0
66702            490.30     0          0          0          0
66485            438.80     0          0          0          0
54315            432.00     0          0          0          0
71053            0          0          0          0          0
71054            0          0          0          0          0
71055            0          0          0          0          0
71056            0          0          0          0          0
71057            0          0          0          0          0
71058            0          0          0          0          0
71059            0          0          0          0          0
71060            0          0          0          0          0
71061            0          0          0          0          0
71062            0          0          0          0          0
71063            0          0          0          0          0
71064            0          0          0          0          0
71065            0          0          0          0          0
71066            0          0          0          0          0
71067            0          0          0          0          0
71068            0          0          0          0          0
71069            0          0          0          0          0
71070            0          0          0          0          0
71071            0          0          0          0          0
71072            0          0          0          0          0
71073            0          0          0          0          0
71074            0          0          0          0          0
71075            0          0          0          0          0
71076            0          0          0          0          0
71077            0          0          0          0          0
71078            0          0          0          0          0
292              0          0          0          0          0
294              0          0          0          0          0
296              0          0          0          0          0
298              0          0          0          0          0
55256            0          0          0          0          0
302              0          0          0          0          0
304              0          0          0          0          0
53390            448.20     0          0          0          0
53388            447.80     0          0          0          0
53405            443.00     0          0          0          0
53457            426.00     0          0          0          0
53474            426.00     0          0          0          0
66476            424.10     0          0          0          0
52689            419.00     0          0          0          0
55290            0          0          0          0          0
53415            443.30     0          0          0          0
53422            456.50     0          0          0          0
53416            444.20     0          0          0          0
53426            444.40     0          0          0          0
68811            424.40     0          0          0          0
53408            458.30     0          0          0          0
53401            430.00     0          0          0          0
53447            425.00     0          0          0          0
53448            428.60     0          0          0          0
68813            425.70     0          0          0          0
52687            416.00     0          0          0          0
53400            425.80     0          0          0          0
53358            428.60     0          0          0          0
52707            452.00     0          0          0          0
52685            429.80     0          0          0          0
52686            416.50     0          0          0          0
55289            0          0          0          0          0
366              0          0          0          0          0
368              0          0          0          0          0
55274            0          0          0          0          0
52730            467.00     0          0          0          0
52733            444.20     0          0          0          0
52736            426.00     0          0          0          0
55382            415.00     0          0          0          0
55369            411.30     0          0          0          0
55396            410.90     0          0          0          0
55395            409.20     0          0          0          0
52573            472.00     0          0          0          0
52713            469.20     0          0          0          0
52716            437.20     0          0          0          0
68794            425.10     0          0          0          0
55272            0          0          0          0          0
55432            406.40     0          0          0          0
55446            405.20     0          0          0          0
402              0          0          0          0          0
404              0          0          0          0          0
406              0          0          0          0          0
55294            0          0          0          0          0
55365            421.70     0          0          0          0
55344            404.90     0          0          0          0
68093            403.20     0          0          0          0
416              0          0          0          0          0
418              0          0          0          0          0
420              0          0          0          0          0
422              0          0          0          0          0
428              0          0          0          0          0
430              0          0          0          0          0
54752            398.57     0          0          0          0
52167            487.00     0          0          0          0
68649            444.60     0          0          0          0
52213            434.00     0          0          0          0
67805            427.00     0          0          0          0
52214            471.60     0          0          0          0
52163            0          0          0          0          0
52255            411.00     0          0          0          0
66465            451.80     0          0          0          0
52240            438.20     0          0          0          0
52248            427.00     0          0          0          0
52243            420.00     0          0          0          0
54815            407.50     0          0          0          0
54889            404.80     0          0          0          0
54773            404.00     0          0          0          0
52145            466.00     0          0          0          0
52217            440.00     0          0          0          0
52216            435.50     0          0          0          0
475              0          0          0          0          0
54898            408.50     0          0          0          0
54909            396.50     0          0          0          0
54811            395.90     0          0          0          0
66976            395.00     0          0          0          0
54747            394.00     0          0          0          0
54748            0          0          0          0          0
51995            452.20     0          0          0          0
51993            427.00     0          0          0          0
54809            410.60     0          0          0          0
68843            401.60     0          0          0          0
54489            400.10     0          0          0          0
54488            397.30     0          0          0          0
54486            393.60     0          0          0          0
63127            0          0          0          0          0
66971            0          0          0          0          0
54522            391.00     0          0          0          0
63126            0          0          0          0          0
63173            394.70     0          0          0          0
513              0          0          0          0          0
515              0          0          0          0          0
517              0          0          0          0          0
519              0          0          0          0          0
521              0          0          0          0          0
523              0          0          0          0          0
525              0          0          0          0          0
527              0          0          0          0          0
529              0          0          0          0          0
534              0          0          0          0          0
51313            438.90     0          0          0          0
51314            439.50     0          0          0          0
51311            440.00     0          0          0          0
65533            473.00     0          0          0          0
54772            404.00     0          0          0          0
53441            434.50     0          0          0          0

[CONDUITS]
;;Name           From             To               Length     Roughness  InOffset   OutOffset  InitFlow   MaxFlow
;;-------------- ---------------- ---------------- ---------- ---------- ---------- ---------- ---------- ----------
AM940C           65392            65295            593.00     0.0150     556.40     526.20     0          0
AM940B           65295            66776            353.00     0.0150     526.20     516.10     0          0
AM940A           66776            65344            174.00     0.0150     514.80     510.60     0          0
AM930B           65344            66656            352.00     0.0160     510.50     504.70     0          0
AM930A           67175            66656            79.00      0.0180     510.70     506.60     0          0
Main920C         66656            65379            45.00      0.0220     504.80     502.40     0          0
Main920B         65379            65396            2100.00    0          502.40     467.00     0          0
Snell C.         Snell R.         65398            36.80      0.0340     467.00     467.00     0          0
Main910A         65398            65370            1050.00    0          467.00     457.00     0          0
Main880B         65370            67978            1400.00    0          457.00     446.78     0          0
Main880A1        Main880A2        Fox R.           224.80     0.0140     447.50     446.50     0          0
AM830B           65582            65601            2040.90    0.0140     623.40     545.20     0          0
AM830A           65601            50200            547.00     0.0150     545.20     534.20     0          0
AM820A           50200            50671            882.20     0.0150     533.80     521.35     0          0
AM810B           50671            50653            2580.30    0.0150     521.40     473.00     0          0
AM810A           50653            50517            686.60     0.0160     473.00     448.00     0          0
AM860D           50130            71047            140.00     0          660.00     650.40     0          0
AM860C           71047            50108            460.00     0          650.40     619.00     0          0
AM850B1          AM850B2          50110            114.00     0.0190     594.00     590.00     0          0
Main800B         50517            50544            1340.00    0          446.48     441.30     0          0
Main800A         50544            66944            1240.00    0          441.30     436.50     0          0
AM780C           51763            66678            136.00     0.0190     446.00     442.00     0          0
AM780B           66678            51850            80.00      0.0150     440.40     438.40     0          0
AM780A           51850            66944            642.40     0.0150     436.70     436.50     0          0
AM830C           50238            50200            1132.80    0.0150     551.70     534.20     0          0
Will C.          Will R.          50238            127.90     0.0210     558.00     551.70     0          0
AM860E           50129            50130            148.00     0.0220     668.00     660.00     0          0
Braeb C.         Braeb R.         66910            59.00      0.0240     619.00     618.00     0          0
AM860A           66910            50109            350.00     0          617.00     594.00     0          0
AM850A           50110            50090            950.00     0          590.00     558.00     0          0
AM890C           50602            65310            1966.10    0.0150     510.00     461.90     0          0
AM890D           50739            50602            844.60     0.0150     542.40     510.00     0          0
AM780D           50531            51763            1550.00    0          484.10     446.00     0          0
AM790A           50660            50531            314.10     0.0160     493.80     484.10     0          0
Main770          66944            51729            1390.00    0          436.50     431.10     0          0
Main740          51729            51730            220.00     0.0350     431.10     429.60     0          0
AM740A           51841            51730            1314.20    0.0150     444.70     432.43     0          0
AM740B           68653            51841            214.40     0.0140     447.00     444.70     0          0
AM740C           51296            68653            1254.10    0.0140     480.90     447.45     0          0
AM740D           66447            51296            145.60     0.0150     485.00     481.87     0          0
AM740E           51285            66447            321.30     0.0150     499.00     485.40     0          0
AM740F           68670            51285            185.20     0.0170     508.10     499.94     0          0
AM740G           68668            68670            40.70      0.0180     510.00     508.14     0          0
AM740H           51271            68668            101.70     0.0150     514.70     510.00     0          0
AM740I           51284            51271            282.50     0.0170     523.50     517.24     0          0
AM740J           51256            51284            177.50     0.0160     531.20     523.87     0          0
AM740K           51239            51256            92.30      0.0200     543.00     531.87     0          0
AM750A           51204            51239            675.00     0          586.90     543.00     0          0
AM750B           50107            51204            320.00     0.0160     600.00     586.90     0          0
AM750D           50163            50115            655.20     0.0170     621.20     601.60     0          0
AM750C           50115            50107            75.00      0          601.60     600.00     0          0
Main730B         51730            51757            268.00     0          429.60     428.80     0          0
Main730A         51757            51751            415.00     0          428.80     427.50     0          0
Main720D         51751            51750            84.00      0.0350     427.50     427.50     0          0
Main720C         51750            71000            335.00     0          427.50     426.76     0          0
30th B.          30th R.          71001            79.00      0          426.80     426.70     0          0
Main720A         71001            71051            725.00     0          426.70     425.00     0          0
29th C.          29th R.          71052            80.00      0.0480     425.00     425.00     0          0
AM680A           51964            71052            1050.70    0.0150     428.80     425.97     0          0
AM680B           51963            51964            731.00     0.0140     433.20     428.80     0          0
AM690H           51344            51302            710.00     0.0150     449.30     439.30     0          0
AM690G           51302            51303            288.00     0.0150     438.60     437.39     0          0
AM690A           68667            51963            150.00     0.0160     435.40     433.20     0          0
AM690I           51303            51305            472.70     0.0160     436.70     436.00     0          0
AM690J-N         AM690J-S         51306            250.70     0.0140     436.00     435.50     0          0
AM690K-N         AM690K-S         51307            277.40     0.0140     435.50     433.60     0          0
AM690F           51303            51309            32.20      0.0190     437.40     437.25     0          0
AM690L           51307            66460            164.00     0.0160     433.60     429.00     0          0
AM660B           66460            54362            772.40     0.0160     428.50     423.40     0          0
AM660A           54362            66967            1291.10    0.0140     423.40     420.00     0          0
AM690M           51963            51961            387.80     0.0140     433.30     428.00     0          0
AM670A           51961            54175            2444.90    0.0150     428.00     421.02     0          0
Main670          71052            54175            700.00     0          425.00     423.20     0          0
Main710          54175            54174            175.00     0          423.20     422.70     0          0
Main660          54174            66967            150.00     0          422.70     422.30     0          0
Main620          66967            54172            1300.00    0          422.30     418.90     0          0
AM620D           66486            54335            1157.10    0.0150     435.70     423.90     0          0
AM620C           54335            54330            646.00     0.0180     423.90     422.85     0          0
AM620E           54325            66486            481.00     0.0150     444.20     436.35     0          0
AM620F           54271            54325            711.50     0.0160     455.10     444.20     0          0
AM620H           54295            66486            383.90     0.0160     437.97     435.70     0          0
AM620I           54267            54295            1498.70    0.0150     445.50     437.97     0          0
AM620J           54271            54267            482.20     0.0140     457.00     450.00     0          0
42" East         24" West         54271            231.70     0.0180     458.00     455.07     0          0
AM620K           54260            54254            638.80     0.0160     476.14     458.30     0          0
AM640C           51437            51411            526.30     0.0140     551.30     530.00     0          0
AM640B           51411            66702            1442.40    0.0140     530.00     483.70     0          0
AM640A           66702            54260            474.50     0.0150     483.70     476.20     0          0
AM620N           54295            66485            777.00     0.0150     437.40     431.80     0          0
AM620M           66485            54315            835.60     0.0140     431.80     424.80     0          0
AM620L           54315            54330            612.00     0.0160     424.80     423.50     0          0
60" North        60" South        54172            961.30     0.0150     421.00     419.50     0          0
83" Elps         42" South        54353            486.00     0.0150     422.90     422.05     0          0
Main610C         54172            71053            650.00     0          418.90     417.20     0          0
Main610A         71054            71055            1975.00    0          417.20     410.80     0          0
Main600A         71056            71057            350.00     0          410.80     410.20     0          0
Main580M         71058            71059            510.00     0          410.20     409.60     0          0
Main580K         71060            71061            350.00     0          409.60     409.50     0          0
Main580I         71062            71063            423.00     0          409.30     409.00     0          0
Main580G         71064            71065            376.00     0          409.00     408.70     0          0
Main580E         71066            71067            145.00     0          408.70     408.40     0          0
Main580C         71068            71069            126.00     0          408.40     408.20     0          0
Main580A         71070            71071            363.00     0          408.10     407.80     0          0
Main560F         71072            71073            337.00     0          407.70     407.30     0          0
Main560D         71074            71075            332.00     0          407.30     407.10     0          0
Main560B         71076            71077            327.00     0          407.00     406.67     0          0
293              71078            292              0          0          0          0          0          0
295              292              294              0          0          0          0          0          0
297              294              296              0          0          0          0          0          0
299              296              298              0          0          0          0          0          0
301              298              55256            0          0          0          0          0          0
303              55256            302              0          0          0          0          0          0
305              302              304              0          0          0          0          0          0
AM460G           53390            53388            360.50     0.0170     440.70     439.20     0          0
AM460F           53388            53405            779.40     0.0150     438.80     435.20     0          0
AM460B           53457            53474            28.00      0.0280     416.20     416.10     0          0
AM460A           53474            66476            256.00     0.0160     415.00     414.50     0          0
AM450B           52689            55290            1354.00    0.0140     411.40     405.86     0          0
AM450A           55290            55256            1262.50    0.0150     405.90     400.70     0          0
AM460E           53405            53415            658.90     0.0150     435.50     430.70     0          0
AM460I           53422            53416            458.90     0.0150     452.20     438.60     0          0
AM460H           53416            53415            26.00      0.0240     430.70     430.70     0          0
AM460L           53422            53426            422.40     0.0150     452.20     438.90     0          0
AM460K           53426            68811            1527.90    0.0140     438.70     418.00     0          0
AM460J           68811            53457            357.80     0.0140     417.50     416.30     0          0
AM460R           53408            53405            429.50     0.0150     451.30     437.40     0          0
AM460Q           53405            53401            888.30     0.0140     437.40     423.60     0          0
AM460S           53448            53447            180.00     0.0150     422.30     419.80     0          0
AM460N           53447            68813            1261.70    0.0150     419.60     415.40     0          0
AM460M           68813            66476            451.50     0.0150     415.40     413.60     0          0
48" West         60" East         52689            1092.40    0.0150     413.60     411.40     0          0
AM450E           52689            52687            572.70     0.0150     411.40     407.70     0          0