;; SWMM5 .inp converted from XPSWMM .xp file
;; Generated by XPSWMM Card Reader
;; Source format: XP_CARD | Original title: West Side DWF

[TITLE]
;;Project Title/Notes
West Side DWF

[OPTIONS]
FLOW_UNITS           CFS
INFILTRATION         HORTON
FLOW_ROUTING         DYNWAVE
LINK_OFFSETS         DEPTH
MIN_SLOPE            0.0
ALLOW_PONDING        NO
SKIP_STEADY_STATE    NO
ROUTING_STEP         00:00:60
VARIABLE_STEP        0.75
INERTIAL_DAMPING     PARTIAL
NORMAL_FLOW_LIMITED  BOTH
MAX_TRIALS           50

[JUNCTIONS]
;;Name           Elev       MaxDepth   InitDepth  SurDepth   Aponded
;;-------------- ---------- ---------- ---------- ---------- ----------
3                811.11     0          0          0          0
5                808.00     0          0          0          0
352              816.50     0          0          0          0
354              810.00     0          0          0          0
OF-4             808.50     0          0          0          0
361              811.00     0          0          0          0
362              816.00     0          0          0          0
365              807.00     0          0          0          0
370              811.84     0          0          0          0
375              811.83     0          0          0          0
377              812.00     0          0          0          0
406              819.30     0          0          0          0
407              814.50     0          0          0          0
409              814.50     0          0          0          0
413              811.00     0          0          0          0
416              811.50     0          0          0          0
418              807.00     0          0          0          0
420              810.00     0          0          0          0
422              817.00     0          0          0          0
424              818.70     0          0          0          0
425              820.00     0          0          0          0
429              817.60     0          0          0          0
431              818.50     0          0          0          0
433              820.00     0          0          0          0
435              817.00     0          0          0          0
437              813.30     0          0          0          0
439              813.50     0          0          0          0
441              831.30     0          0          0          0
442              821.30     0          0          0          0
445              838.10     0          0          0          0
446              831.50     0          0          0          0
449              837.00     0          0          0          0
450              835.44     0          0          0          0
453              823.00     0          0          0          0
455              813.50     0          0          0          0
457              841.00     0          0          0          0
458              838.00     0          0          0          0
460              834.50     0          0          0          0
462              829.52     0          0          0          0
464              827.00     0          0          0          0
466              825.30     0          0          0          0
OF-7             819.00     0          0          0          0
471              816.10     0          0          0          0
472              815.50     0          0          0          0
476              819.00     0          0          0          0
479              818.50     0          0          0          0
OF-27            810.00     0          0          0          0
484              820.00     0          0          0          0
488              818.00     0          0          0          0
491              875.00     0          0          0          0
486              820.00     0          0          0          0
495              817.00     0          0          0          0
497              812.50     0          0          0          0
499              829.36     0          0          0          0
501              829.50     0          0          0          0
503              828.00     0          0          0          0
504              824.20     0          0          0          0
506              823.76     0          0          0          0
509              831.75     0          0          0          0
511              835.10     0          0          0          0
513              830.10     0          0          0          0
515              835.90     0          0          0          0
516              835.20     0          0          0          0
521              833.50     0          0          0          0
524              880.00     0          0          0          0
CS0              838.50     0          0          0          0
531              842.50     0          0          0          0
532              842.00     0          0          0          0
534              835.00     0          0          0          0
537              832.48     0          0          0          0
538              832.78     0          0          0          0
540              833.68     0          0          0          0
543              820.10     0          0          0          0
545              818.00     0          0          0          0
547              820.00     0          0          0          0
550              830.00     0          0          0          0
551              820.00     0          0          0          0
OF-8             815.00     0          0          0          0
557              860.00     0          0          0          0
558              848.00     0          0          0          0
CSO              847.00     0          0          0          0
563              849.00     0          0          0          0
565              834.50     0          0          0          0
566              836.50     0          0          0          0
571              820.40     0          0          0          0
573              836.28     0          0          0          0
575              835.28     0          0          0          0
OF-11            815.00     0          0          0          0
580              814.61     0          0          0          0
581              814.00     0          0          0          0
584              814.00     0          0          0          0
586              816.72     0          0          0          0
587              815.05     0          0          0          0
589              815.24     0          0          0          0
592              825.10     0          0          0          0
593              820.00     0          0          0          0
596              823.96     0          0          0          0
597              816.50     0          0          0          0
600              834.30     0          0          0          0
602              837.40     0          0          0          0
603              827.00     0          0          0          0
8                820.10     0          0          0          0
608              821.40     0          0          0          0
610              823.00     0          0          0          0
615              826.50     0          0          0          0
616              824.98     0          0          0          0
618              814.50     0          0          0          0
620              814.00     0          0          0          0
623              814.00     0          0          0          0
624              815.00     0          0          0          0
9                811.00     0          0          0          0
629              823.00     0          0          0          0
10               822.50     0          0          0          0
of21             823.50     0          0          0          0
635              822.40     0          0          0          0
637              824.00     0          0          0          0
638              815.10     0          0          0          0
ST+OF21&28       815.00     0          0          0          0
642              825.00     0          0          0          0
643              822.00     0          0          0          0
645              823.50     0          0          0          0
650              825.80     0          0          0          0
651              826.90     0          0          0          0
654              825.10     0          0          0          0
656              814.50     0          0          0          0
660              836.50     0          0          0          0
661              837.00     0          0          0          0
CSO              836.00     0          0          0          0
666              832.77     0          0          0          0
CSO              838.75     0          0          0          0
670              830.00     0          0          0          0
672              836.50     0          0          0          0
674              851.70     0          0          0          0
676              832.24     0          0          0          0
678              836.80     0          0          0          0
680              834.00     0          0          0          0
682              836.00     0          0          0          0
684              838.00     0          0          0          0
686              830.00     0          0          0          0
688              837.00     0          0          0          0
690              824.50     0          0          0          0
692              850.00     0          0          0          0
694              850.00     0          0          0          0
696              857.20     0          0          0          0
697              834.87     0          0          0          0
702              878.06     0          0          0          0
703              842.50     0          0          0          0
706              841.00     0          0          0          0
709              835.90     0          0          0          0
711              827.50     0          0          0          0
OF-13            820.00     0          0          0          0
OF-12            818.00     0          0          0          0
718              839.95     0          0          0          0
719              838.30     0          0          0          0
721              837.80     0          0          0          0
723              837.73     0          0          0          0
725              838.52     0          0          0          0
727              835.00     0          0          0          0
729              838.00     0          0          0          0
731              814.70     0          0          0          0
OF-14            812.00     0          0          0          0
735              816.00     0          0          0          0
736              814.70     0          0          0          0
739              817.00     0          0          0          0
741              816.00     0          0          0          0
744              819.00     0          0          0          0
745              818.00     0          0          0          0
747              812.00     0          0          0          0
750              825.00     0          0          0          0
752              824.50     0          0          0          0
754              818.50     0          0          0          0
OF-33            818.00     0          0          0          0
ST+0F15-18       818.00     0          0          0          0
761              818.10     0          0          0          0
762              818.00     0          0          0          0
765              820.50     0          0          0          0
767              826.00     0          0          0          0
769              821.54     0          0          0          0
770              818.00     0          0          0          0
773              823.00     0          0          0          0
775              827.40     0          0          0          0
776              829.58     0          0          0          0
778              833.30     0          0          0          0
780              825.50     0          0          0          0
782              825.00     0          0          0          0
786              829.00     0          0          0          0
788              827.51     0          0          0          0
789              829.51     0          0          0          0
791              829.53     0          0          0          0
794              826.00     0          0          0          0
796              827.10     0          0          0          0
799              822.00     0          0          0          0
801              838.80     0          0          0          0
802              834.90     0          0          0          0
804              830.20     0          0          0          0
807              856.00     0          0          0          0
809              836.00     0          0          0          0
810              828.50     0          0          0          0
813              906.93     0          0          0          0
814              850.00     0          0          0          0
817              853.90     0          0          0          0
819              860.10     0          0          0          0
821              826.20     0          0          0          0
822              826.10     0          0          0          0
825              847.93     0          0          0          0
826              837.64     0          0          0          0
828              829.50     0          0          0          0
831              860.00     0          0          0          0
832              855.00     0          0          0          0
835              848.00     0          0          0          0
837              830.85     0          0          0          0
838              826.00     0          0          0          0
841              870.30     0          0          0          0
842              869.00     0          0          0          0
844              855.20     0          0          0          0
846              844.99     0          0          0          0
849              858.21     0          0          0          0
851              864.00     0          0          0          0
852              868.65     0          0          0          0
855              868.00     0          0          0          0
857              879.20     0          0          0          0
860              856.50     0          0          0          0
862              866.50     0          0          0          0
864              853.20     0          0          0          0
866              841.50     0          0          0          0
868              834.35     0          0          0          0
871              850.00     0          0          0          0
873              868.00     0          0          0          0
875              833.76     0          0          0          0
OF-9             815.00     0          0          0          0
879              833.29     0          0          0          0
882              838.50     0          0          0          0
884              869.94     0          0          0          0
885              862.50     0          0          0          0
888              836.33     0          0          0          0
892              829.00     0          0          0          0
894              823.16     0          0          0          0
897              815.21     0          0          0          0
OF-6             810.00     0          0          0          0
906              836.00     0          0          0          0
910              834.50     0          0          0          0
915              812.00     0          0          0          0
924              814.05     0          0          0          0
928              854.00     0          0          0          0
930              815.40     0          0          0          0
934              827.50     0          0          0          0
936              836.00     0          0          0          0
938              838.00     0          0          0          0
940              855.00     0          0          0          0
941              854.00     0          0          0          0
944              834.50     0          0          0          0
946              833.00     0          0          0          0
948              838.50     0          0          0          0
950              837.00     0          0          0          0
953              838.00     0          0          0          0
955              838.60     0          0          0          0
958              839.00     0          0          0          0
960              833.32     0          0          0          0
962              837.00     0          0          0          0
965              837.50     0          0          0          0
967              842.00     0          0          0          0
969              836.00     0          0          0          0
972              836.50     0          0          0          0
974              836.00     0          0          0          0
976              834.80     0          0          0          0
978              835.00     0          0          0          0
980              837.00     0          0          0          0
982              838.00     0          0          0          0
984              839.50     0          0          0          0
986              837.50     0          0          0          0
990              838.00     0          0          0          0
993              839.80     0          0          0          0
995              838.20     0          0          0          0
999              835.50     0          0          0          0
1001             835.00     0          0          0          0
1003             833.20     0          0          0          0
1006             833.00     0          0          0          0
1008             829.50     0          0          0          0
1010             843.00     0          0          0          0
1012             819.00     0          0          0          0
1016             810.50     0          0          0          0
1019             811.00     0          0          0          0
1021             851.50     0          0          0          0
1023             850.00     0          0          0          0
1025             856.00     0          0          0          0
1027             862.00     0          0          0          0
1029             858.00     0          0          0          0
1031             845.00     0          0          0          0
1033             813.00     0          0          0          0
1035             818.00     0          0          0          0
1037             812.00     0          0          0          0
1039             812.10     0          0          0          0
1042             814.00     0          0          0          0
1044             814.00     0          0          0          0
1046             813.40     0          0          0          0
1049             814.00     0          0          0          0
1052             819.00     0          0          0          0
1054             823.50     0          0          0          0
1056             832.00     0          0          0          0
1058             832.00     0          0          0          0
1060             830.00     0          0          0          0
1063             830.50     0          0          0          0
1065             826.60     0          0          0          0
1068             827.00     0          0          0          0
1070             820.00     0          0          0          0
1072             809.00     0          0          0          0
1075             810.00     0          0          0          0
1077             819.50     0          0          0          0
1079             820.00     0          0          0          0
1081             825.00     0          0          0          0
1083             818.50     0          0          0          0
1085             823.50     0          0          0          0
1087             822.00     0          0          0          0
1090             823.00     0          0          0          0
1092             824.00     0          0          0          0
1094             834.00     0          0          0          0
1096             830.00     0          0          0          0
1098             830.50     0          0          0          0
1100             830.50     0          0          0          0
1102             827.50     0          0          0          0
1104             828.00     0          0          0          0
1106             816.50     0          0          0          0
1108             816.00     0          0          0          0
1111             816.50     0          0          0          0
1113             816.50     0          0          0          0
1115             817.00     0          0          0          0
1117             817.00     0          0          0          0
1119             840.00     0          0          0          0
1121             824.00     0          0          0          0
1123             824.00     0          0          0          0
1125             824.00     0          0          0          0
1127             828.00     0          0          0          0
1129             828.00     0          0          0          0
1131             820.50     0          0          0          0
1133             825.00     0          0          0          0
1135             817.00     0          0          0          0
1137             816.00     0          0          0          0
1139             815.00     0          0          0          0
1142             816.00     0          0          0          0
1144             825.00     0          0          0          0
1146             823.60     0          0          0          0
1148             817.80     0          0          0          0
1150             817.00     0          0          0          0
1153             818.00     0          0          0          0
1155             818.00     0          0          0          0
1157             818.00     0          0          0          0
1159             824.00     0          0          0          0
1161             824.00     0          0          0          0
1163             813.20     0          0          0          0
1166             813.50     0          0          0          0
1168             815.00     0          0          0          0
1170             854.00     0          0          0          0
1172             854.00     0          0          0          0
1174             829.00     0          0          0          0
1176             829.00     0          0          0          0
1178             827.00     0          0          0          0
1180             827.00     0          0          0          0
1182             847.00     0          0          0          0
1183             846.65     0          0          0          0
1185             822.54     0          0          0          0
1187             823.80     0          0          0          0
1189             822.30     0          0          0          0
1192             823.00     0          0          0          0
1194             824.00     0          0          0          0
1196             824.00     0          0          0          0
1198             814.00     0          0          0          0
1200             868.20     0          0          0          0
1202             857.00     0          0          0          0
1204             867.00     0          0          0          0
1206             864.00     0          0          0          0
1209             864.50     0          0          0          0
1211             865.00     0          0          0          0
1213             854.00     0          0          0          0
1215             854.00     0          0          0          0
1217             851.00     0          0          0          0
1219             829.30     0          0          0          0
1221             831.00     0          0          0          0
1224             831.50     0          0          0          0
1226             850.00     0          0          0          0
1229             854.00     0          0          0          0
1233             838.00     0          0          0          0
1235             861.00     0          0          0          0
1237             819.00     0          0          0          0
1239             852.00     0          0          0          0
1241             838.00     0          0          0          0
1243             842.00     0          0          0          0
1245             836.00     0          0          0          0
1248             829.00     0          0          0          0
1252             835.00     0          0          0          0
1254             820.00     0          0          0          0
1256             813.00     0          0          0          0
1258             836.00     0          0          0          0
1260             825.00     0          0          0          0
1262             826.00     0          0          0          0
1268             824.00     0          0          0          0
WWTP-2           811.80     0          0          0          0
WWTP-1           811.80     0          0          0          0
1277             820.50     0          0          0          0
1282             823.00     0          0          0          0
1284             812.20     0          0          0          0
1285             812.00     0          0          0          0
1288             810.80     0          0          0          0
RVR+OF10         810.00     0          0          0          0
1292             871.00     0          0          0          0
1293             870.50     0          0          0          0
1295             870.00     0          0          0          0
1297             869.50     0          0          0          0
1299             869.00     0          0          0          0
1301             868.50     0          0          0          0
RVR-PRSHG        868.00     0          0          0          0
1308             975.00     0          0          0          0
1309             970.00     0          0          0          0
1311             971.00     0          0          0          0
1313             972.00     0          0          0          0
1315             971.00     0          0          0          0
RVR-ZMMR         970.00     0          0          0          0
1323             850.00     0          0          0          0
1325             851.00     0          0          0          0
1328             850.00     0          0          0          0
1330             870.00     0          0          0          0
1333             880.00     0          0          0          0
18               816.50     0          0          0          0
14               813.00     0          0          0          0
15               813.00     0          0          0          0
381              812.10     0          0          0          0
383              812.00     0          0          0          0
OF-34            812.00     0          0          0          0
1350             827.00     0          0          0          0
1351             826.00     0          0          0          0
1353             825.00     0          0          0          0
1355             824.00     0          0          0          0
RVR-WIT          823.00     0          0          0          0
1360             838.50     0          0          0          0
1361             838.00     0          0          0          0
1363             837.50     0          0          0          0
RVR-SB           837.00     0          0          0          0
294              826.00     0          0          0          0
296              823.00     0          0          0          0
304              834.00     0          0          0          0
305              832.00     0          0          0          0
308              820.00     0          0          0          0
2                816.50     0          0          0          0
315              815.84     0          0          0          0
316              816.91     0          0          0          0
4                811.11     0          0          0          0
322              812.50     0          0          0          0
323              810.70     0          0          0          0
6                808.00     0          0          0          0
ST+OF30-32       808.00     0          0          0          0
392              823.00     0          0          0          0
7                812.00     0          0          0          0
485              811.50     0          0          0          0
11               828.00     0          0          0          0
606              825.00     0          0          0          0
12               826.00     0          0          0          0
13               821.00     0          0          0          0
627              820.50     0          0          0          0
630              822.00     0          0          0          0
632              820.00     0          0          0          0
a                821.00     0          0          0          0
b                817.00     0          0          0          0
679              830.00     0          0          0          0
OF-5             808.00     0          0          0          0

[CONDUITS]
;;Name           From             To               Length     Roughness  InOffset   OutOffset  InitFlow   MaxFlow