;; SWMM5 .inp converted from XPSWMM .xp file
;; Generated by XPSWMM Card Reader
;; Source format: XP_CARD | Original title: Hartford MDC CSO Project

[TITLE]
;;Project Title/Notes
Hartford MDC CSO Project

[OPTIONS]
FLOW_UNITS           CFS
INFILTRATION         HORTON
FLOW_ROUTING         DYNWAVE
LINK_OFFSETS         DEPTH
MIN_SLOPE            0.0
ALLOW_PONDING        NO
SKIP_STEADY_STATE    NO
ROUTING_STEP         00:00:15
VARIABLE_STEP        0.75
INERTIAL_DAMPING     PARTIAL
NORMAL_FLOW_LIMITED  BOTH
MAX_TRIALS           50
HEAD_TOLERANCE       0.0033

[JUNCTIONS]
;;Name           Elev       MaxDepth   InitDepth  SurDepth   Aponded
;;-------------- ---------- ---------- ---------- ---------- ----------
cr105            12.42      0          0          0          0
cr120            13.54      0          0          0          0
cr145            14.56      0          0          0          0
cr140            14.56      0          0          0          0
cr135            14.42      0          0          0          0
cr130            13.72      0          0          0          0
cr125            14.17      0          0          0          0
cr115            12.84      0          0          0          0
cr110            12.38      0          0          0          0
cr175            25.87      0          0          0          0
cr155            17.28      0          0          0          0
cr150            16.09      0          0          0          0
cr160            18.22      0          0          0          0
cr165            17.00      0          0          0          0
cr170            15.93      0          0          0          0
cr180            18.12      0          0          0          0
sm2g             19.22      0          0          0          0
cr195            18.41      0          0          0          0
cr200            18.49      0          0          0          0
cr205            19.50      0          0          0          0
sm1a             21.92      0          0          0          0
cr235            27.30      0          0          0          0
cr240            23.90      0          0          0          0
nm11c            32.17      0          0          0          0
cr255            23.10      0          0          0          0
cr260            23.40      0          0          0          0
cr265            23.90      0          0          0          0
cr270            17.90      0          0          0          0
cr275            18.50      0          0          0          0
cr285            32.90      0          0          0          0
cr290            32.90      0          0          0          0
cr295            30.90      0          0          0          0
cr280            18.90      0          0          0          0
cr320            28.40      0          0          0          0
cr315            27.40      0          0          0          0
cr310            27.40      0          0          0          0
cr305            30.50      0          0          0          0
cr300            31.40      0          0          0          0
cr325            28.40      0          0          0          0
nm5a             28.40      0          0          0          0
nm6e             30.20      0          0          0          0
nm6a             42.90      0          0          0          0
nm7c             58.42      0          0          0          0
nm7a             58.42      0          0          0          0
sm1b             21.92      0          0          0          0
sm1c             21.92      0          0          0          0
sm1of            21.92      0          0          0          0
js100            18.82      0          0          0          0
sm2h             19.42      0          0          0          0
sm2of            25.40      0          0          0          0
w155             22.90      0          0          0          0
nm1a             21.00      0          0          0          0
w150             20.00      0          0          0          0
nm1b             21.00      0          0          0          0
nm1of            21.00      0          0          0          0
w145             21.80      0          0          0          0
ne910            34.70      0          0          0          0
ne125            27.40      0          0          0          0
ne120            30.40      0          0          0          0
nm2b             27.40      0          0          0          0
nm4b             27.40      0          0          0          0
nm4c             27.40      0          0          0          0
nm4of            27.40      0          0          0          0
nm3b             27.70      0          0          0          0
nm2c             27.50      0          0          0          0
ne135            44.40      0          0          0          0
nm7d             56.12      0          0          0          0
nm7b             58.42      0          0          0          0
nm6c             42.90      0          0          0          0
nm6of            29.40      0          0          0          0
nm5b             28.40      0          0          0          0
nm5c             28.40      0          0          0          0
nm5ofb           28.40      0          0          0          0
nm6b             42.90      0          0          0          0
nm5d             28.40      0          0          0          0
p100             22.02      0          0          0          0
nm10c            52.10      0          0          0          0
nm10b            24.20      0          0          0          0
nm11d            32.17      0          0          0          0
nm10d            23.10      0          0          0          0
nm11a            32.17      0          0          0          0
nm11b            32.17      0          0          0          0
nm11of           32.17      0          0          0          0
nm12d            49.00      0          0          0          0
nm12b            35.40      0          0          0          0
nm12e            29.10      0          0          0          0
nm12c            35.40      0          0          0          0
nm14c            47.90      0          0          0          0
nm14a            43.40      0          0          0          0
nm14d            47.90      0          0          0          0
nm14b            43.40      0          0          0          0
nm14of           22.70      0          0          0          0
nm15d            53.40      0          0          0          0
nm15a            52.42      0          0          0          0
nm15b            52.00      0          0          0          0
cr370            18.22      0          0          0          0
cr380            28.90      0          0          0          0
cr375            22.40      0          0          0          0
cr385            39.00      0          0          0          0
cr390            53.70      0          0          0          0
cr350            67.00      0          0          0          0
cr355            77.00      0          0          0          0
cr360            82.00      0          0          0          0
cr345            68.70      0          0          0          0
ne105            28.40      0          0          0          0
ne110            31.10      0          0          0          0
ne115            31.40      0          0          0          0
ne915            40.40      0          0          0          0
ne140            49.40      0          0          0          0
ne145            49.40      0          0          0          0
w120             17.80      0          0          0          0
w100             27.40      0          0          0          0
w105             27.40      0          0          0          0
w115             23.40      0          0          0          0
w125             17.40      0          0          0          0
w130             18.10      0          0          0          0
w135             18.40      0          0          0          0
w140             24.40      0          0          0          0
w160             21.40      0          0          0          0
w165             19.40      0          0          0          0
w170             20.40      0          0          0          0
w175             20.20      0          0          0          0
mb130            37.40      0          0          0          0
mb125            31.90      0          0          0          0
mb120            30.90      0          0          0          0
mb110            28.40      0          0          0          0
mb105            22.70      0          0          0          0
mb100            28.40      0          0          0          0
p26b             53.20      0          0          0          0
p26c             50.70      0          0          0          0
nm15of           22.80      0          0          0          0
nm12of           23.90      0          0          0          0
nm10of           24.20      0          0          0          0
nm5ofa           28.40      0          0          0          0
nm14h            22.70      0          0          0          0
nm14f            29.40      0          0          0          0
nm14g            26.70      0          0          0          0
p26of            38.12      0          0          0          0
cr368            18.90      0          0          0          0
p1of             30.92      0          0          0          0
nm7of            42.90      0          0          0          0
sm2m             35.40      0          0          0          0
p26d             38.92      0          0          0          0
cr103            13.00      0          0          0          0
cr101            13.30      0          0          0          0
ri105            12.65      0          0          0          0
ri110            13.00      0          0          0          0
ri115            13.30      0          0          0          0
ri120            15.40      0          0          0          0
ri125            15.50      0          0          0          0
ri130            16.10      0          0          0          0
ri135            16.80      0          0          0          0
ri140            17.00      0          0          0          0
ri145            16.70      0          0          0          0
ri150            19.30      0          0          0          0
ri155            16.80      0          0          0          0
ri160            17.00      0          0          0          0
ri165            17.50      0          0          0          0
ri170            21.80      0          0          0          0
ri175            31.90      0          0          0          0
ri180            18.20      0          0          0          0
ri185            19.30      0          0          0          0
sm2n             22.65      0          0          0          0
j115             27.62      0          0          0          0
j110             21.52      0          0          0          0
j105             19.92      0          0          0          0
j130             63.92      0          0          0          0
j125             68.92      0          0          0          0
j120             64.92      0          0          0          0
j155             75.92      0          0          0          0
j150             80.92      0          0          0          0
j145             87.42      0          0          0          0
j140             74.92      0          0          0          0
j180             65.92      0          0          0          0
j175             70.92      0          0          0          0
j170             112.92     0          0          0          0
j165             115.42     0          0          0          0
j160             96.92      0          0          0          0
p105             21.82      0          0          0          0
p110             28.12      0          0          0          0
p115             33.42      0          0          0          0
p5a              32.32      0          0          0          0
p140             29.12      0          0          0          0
p9a              28.72      0          0          0          0
p150             28.02      0          0          0          0
p165             33.62      0          0          0          0
p170             52.32      0          0          0          0
p180             32.92      0          0          0          0
p175             42.00      0          0          0          0
p215             41.72      0          0          0          0
p205             45.92      0          0          0          0
p130             30.12      0          0          0          0
p260             39.41      0          0          0          0
p255             40.22      0          0          0          0
p250             39.22      0          0          0          0
p245             34.02      0          0          0          0
p240             36.72      0          0          0          0
p285             54.12      0          0          0          0
p280             43.02      0          0          0          0
p275             47.22      0          0          0          0
p270             46.12      0          0          0          0
p265             46.02      0          0          0          0
p305             61.72      0          0          0          0
p300             51.32      0          0          0          0
p290             61.82      0          0          0          0
p147             27.80      0          0          0          0
p2a              44.82      0          0          0          0
p325             43.22      0          0          0          0
p315             23.92      0          0          0          0
p310             23.92      0          0          0          0
p345             32.82      0          0          0          0
p340             52.82      0          0          0          0
p335             49.42      0          0          0          0
p355             49.32      0          0          0          0
p3a              43.22      0          0          0          0
p370             31.82      0          0          0          0
p6a              37.52      0          0          0          0
p400             53.42      0          0          0          0
p395             43.42      0          0          0          0
p390             29.12      0          0          0          0
p7a              28.82      0          0          0          0
p415             72.22      0          0          0          0
p8a              64.42      0          0          0          0
p420             77.42      0          0          0          0
p425             86.12      0          0          0          0
p407             61.72      0          0          0          0
p435             34.52      0          0          0          0
p10a             34.63      0          0          0          0
p455             62.82      0          0          0          0
p14a             51.90      0          0          0          0
p530             96.72      0          0          0          0
i6a              87.72      0          0          0          0
i7a              91.22      0          0          0          0
p495             85.32      0          0          0          0
p490             72.92      0          0          0          0
p485             72.92      0          0          0          0
p470             56.42      0          0          0          0
p15aa            49.40      0          0          0          0
p505             69.12      0          0          0          0
p16aa            65.12      0          0          0          0
p510             65.92      0          0          0          0
p475             60.22      0          0          0          0
p550             52.32      0          0          0          0
p540             49.12      0          0          0          0
p19a             45.42      0          0          0          0
p570             51.32      0          0          0          0
p18a             46.02      0          0          0          0
p580             55.10      0          0          0          0
p590             61.50      0          0          0          0
p22a             50.62      0          0          0          0
p615             62.42      0          0          0          0
p25a             62.42      0          0          0          0
p605             66.72      0          0          0          0
p600             48.22      0          0          0          0
n25c             53.42      0          0          0          0
n25of            52.02      0          0          0          0
n25b             54.12      0          0          0          0
n27c             38.20      0          0          0          0
n27b             38.18      0          0          0          0
n27of            41.00      0          0          0          0
p2b              44.82      0          0          0          0
p2of             43.22      0          0          0          0
p3b              43.22      0          0          0          0
p3of             43.22      0          0          0          0
p4b              32.12      0          0          0          0
p4of             32.12      0          0          0          0
p5b              32.42      0          0          0          0
p5of             11.02      0          0          0          0
p7of             28.52      0          0          0          0
p8b              64.42      0          0          0          0
p8of             53.42      0          0          0          0
p9b              28.72      0          0          0          0
p9of             28.32      0          0          0          0
p10b             34.63      0          0          0          0
p10of            28.02      0          0          0          0
p11b             35.42      0          0          0          0
p11of            28.02      0          0          0          0
p13b             33.62      0          0          0          0
p13c             33.02      0          0          0          0
p1213of          24.69      0          0          0          0
p14of            50.50      0          0          0          0
p14b             51.90      0          0          0          0
p15b             49.22      0          0          0          0
p15ac            49.80      0          0          0          0
p15aof           49.02      0          0          0          0
p15ab            53.52      0          0          0          0
p16b             65.72      0          0          0          0
p16ab            65.72      0          0          0          0
p16of            65.72      0          0          0          0
p18b             46.02      0          0          0          0
p18of            44.62      0          0          0          0
p19b             45.42      0          0          0          0
p19of            45.42      0          0          0          0
p20b             49.50      0          0          0          0
p21of            50.50      0          0          0          0
p22of            51.20      0          0          0          0
p23a             43.40      0          0          0          0
p23b             41.68      0          0          0          0
p23of            41.72      0          0          0          0
p24b             45.22      0          0          0          0
p24of            45.22      0          0          0          0
p25b             62.42      0          0          0          0
p25of            70.02      0          0          0          0
p28of            54.02      0          0          0          0
p28b             58.42      0          0          0          0
i6i7of           85.32      0          0          0          0
i7b              93.30      0          0          0          0
i6b              89.80      0          0          0          0
p465             53.72      0          0          0          0
p14c             35.02      0          0          0          0
p620             45.12      0          0          0          0
p625             45.92      0          0          0          0
p630             42.42      0          0          0          0
p585             41.82      0          0          0          0
p15c             48.92      0          0          0          0
p15of            46.12      0          0          0          0
h105             70.92      0          0          0          0
h110             62.22      0          0          0          0
h120             49.92      0          0          0          0
h115             49.92      0          0          0          0
h130             55.72      0          0          0          0
h135             57.02      0          0          0          0
h140             63.02      0          0          0          0
h145             73.02      0          0          0          0
h150             67.12      0          0          0          0
h155             65.20      0          0          0          0
h165             57.22      0          0          0          0
h170             71.02      0          0          0          0
h175             77.02      0          0          0          0
h180             64.02      0          0          0          0
n2c              56.12      0          0          0          0
h190             74.42      0          0          0          0
h200             62.22      0          0          0          0
h205             65.12      0          0          0          0
h220             68.22      0          0          0          0
h215             71.72      0          0          0          0
h210             66.42      0          0          0          0
h230             71.82      0          0          0          0
h240             54.12      0          0          0          0
h265             63.72      0          0          0          0
h260             65.22      0          0          0          0
h280             56.82      0          0          0          0
h275             53.12      0          0          0          0
h270             52.22      0          0          0          0
n2d              58.12      0          0          0          0
n2a              56.12      0          0          0          0
n2b              55.92      0          0          0          0
n2e              47.82      0          0          0          0
n2f              51.50      0          0          0          0
n2of             45.82      0          0          0          0
h295             88.72      0          0          0          0
h290             81.62      0          0          0          0
h285             62.92      0          0          0          0
n4c              61.02      0          0          0          0
n4d              44.92      0          0          0          0
n4of             43.92      0          0          0          0
h300             105.72     0          0          0          0
i2b              49.39      0          0          0          0
i2a              50.00      0          0          0          0
h112             49.92      0          0          0          0
i3c              50.30      0          0          0          0
i3a              49.92      0          0          0          0
i26b             65.92      0          0          0          0
i26c             60.00      0          0          0          0
i27a             60.00      0          0          0          0
i28a             64.00      0          0          0          0
i27c             63.20      0          0          0          0
i27b             63.30      0          0          0          0
h253             60.02      0          0          0          0
n4e              52.42      0          0          0          0
n125             40.62      0          0          0          0
n120             49.72      0          0          0          0
n115             53.92      0          0          0          0
n105             44.32      0          0          0          0
n160             49.62      0          0          0          0
n155             43.72      0          0          0          0
n150             43.42      0          0          0          0
n26a             43.72      0          0          0          0
n140             44.92      0          0          0          0
n210             37.92      0          0          0          0
n340             85.92      0          0          0          0
n335             79.92      0          0          0          0
n330             73.92      0          0          0          0
n320             55.72      0          0          0          0
n315             53.22      0          0          0          0
n310             67.72      0          0          0          0
n305             49.42      0          0          0          0
n300             50.92      0          0          0          0
n295             50.43      0          0          0          0
n290             50.42      0          0          0          0
n285             52.92      0          0          0          0
n280             56.62      0          0          0          0
n275             55.92      0          0          0          0
n270             52.92      0          0          0          0
n265             52.12      0          0          0          0
i1a              53.12      0          0          0          0
n255             46.62      0          0          0          0
n230             53.72      0          0          0          0
n225             53.82      0          0          0          0
n220             45.62      0          0          0          0
n345             85.12      0          0          0          0
n390             109.92     0          0          0          0
n385             108.92     0          0          0          0
n380             90.12      0          0          0          0
n375             75.92      0          0          0          0
n370             66.32      0          0          0          0
n360             55.52      0          0          0          0
n432             74.12      0          0          0          0
n405             50.12      0          0          0          0
n400             46.52      0          0          0          0
i4a              53.72      0          0          0          0
n465             98.52      0          0          0          0
n460             81.62      0          0          0          0
n14a             74.92      0          0          0          0
n450             75.92      0          0          0          0
n440             68.72      0          0          0          0
n435             55.92      0          0          0          0
n19a             69.00      0          0          0          0
n17a             75.02      0          0          0          0
n16a             76.72      0          0          0          0
n13a             75.92      0          0          0          0
n490             53.06      0          0          0          0
n500             68.52      0          0          0          0
n520             73.90      0          0          0          0
n530             85.92      0          0          0          0
n540             83.12      0          0          0          0
n545             80.72      0          0          0          0
n12a             94.92      0          0          0          0
n555             86.72      0          0          0          0
n550             82.12      0          0          0          0
n12e             98.52      0          0          0          0
n580             44.72      0          0          0          0
n590             66.42      0          0          0          0
n595             64.92      0          0          0          0
n600             72.92      0          0          0          0
n605             73.92      0          0          0          0
n620             53.92      0          0          0          0
n29a             46.52      0          0          0          0
n1d              0          0          0          0          0
n1a              0          0          0          0          0
n1e              0          0          0          0          0
n1b              0          0          0          0          0
n1of             0          0          0          0          0
n7d              85.92      0          0          0          0
n7g              68.42      0          0          0          0
n7c              80.42      0          0          0          0
n7e              72.30      0          0          0          0
n10e             72.90      0          0          0          0
n10a             68.50      0          0          0          0
n10b             68.50      0          0          0          0
n10c             68.10      0          0          0          0
n10d             70.94      0          0          0          0
n7h              63.40      0          0          0          0
n7i              57.60      0          0          0          0
n7j              51.10      0          0          0          0
n9b              0          0          0          0          0
n9of             48.90      0          0          0          0
n10g             57.42      0          0          0          0
n10h             47.12      0          0          0          0
n12c             94.92      0          0          0          0
n12b             94.92      0          0          0          0
n12of            94.92      0          0          0          0
n12d             0          0          0          0          0
n14b             74.92      0          0          0          0