;; SWMM5 .inp converted from XPSWMM .xp file
;; Generated by XPSWMM Card Reader
;; Source format: XP_CARD | Original title: (none)

[TITLE]
;;Project Title/Notes
Converted from XPSWMM .xp file

[OPTIONS]
FLOW_UNITS           CFS
INFILTRATION         HORTON
FLOW_ROUTING         DYNWAVE
LINK_OFFSETS         DEPTH
MIN_SLOPE            0.0
ALLOW_PONDING        NO
SKIP_STEADY_STATE    NO
INERTIAL_DAMPING     PARTIAL
NORMAL_FLOW_LIMITED  BOTH

[JUNCTIONS]
;;Name           Elev       MaxDepth   InitDepth  SurDepth   Aponded
;;-------------- ---------- ---------- ---------- ---------- ----------
roebuck          0          0          0          0          0
1242.128         0          0          0          0          0
1242.131         0          0          0          0          0
1330.109         0          0          0          0          0
1330.108         0          0          0          0          0
1330.105         0          0          0          0          0
1202.101         0          0          0          0          0
1098.102         0          0          0          0          0
1370.104         0          0          0          0          0
1215.101         0          0          0          0          0
???              0          0          0          0          0
1127.101         0          0          0          0          0
18"              0          0          0          0          0
siphon           0          0          0          0          0
siphon           0          0          0          0          0
headworks        0          0          0          0          0
WWTF             0          0          0          0          0
sub              0          0          0          0          0
1242.132.1       0          0          0          0          0
1242.133         0          0          0          0          0
1242.134         0          0          0          0          0
3098.110         0          0          0          0          0
2370.102         0          0          0          0          0
2370.101         0          0          0          0          0
1359.102         0          0          0          0          0
1359.101         0          0          0          0          0
1242.133.1       0          0          0          0          0
thor/elm         0          0          0          0          0
????             0          0          0          0          0
n/main           0          0          0          0          0
1215.104         0          0          0          0          0
1215.102         0          0          0          0          0
sub              0          0          0          0          0
sbchrg           0          0          0          0          0
2351.101         0          0          0          0          0
sub              0          0          0          0          0
sub              0          0          0          0          0
sub              0          0          0          0          0
sub              0          0          0          0          0
sub              0          0          0          0          0
sub              0          0          0          0          0
sub              0          0          0          0          0
1202.105         0          0          0          0          0
1202.103         0          0          0          0          0
sub              0          0          0          0          0
CSO              0          0          0          0          0
6"               0          0          0          0          0
CSO              0          0          0          0          0
sub              0          0          0          0          0
3018.131         0          0          0          0          0
1159.101         0          0          0          0          0
1159.102         0          0          0          0          0
107/378.04       0          0          0          0          0
1378/086.2       0          0          0          0          0
1378.1.1         0          0          0          0          0
chamber          0          0          0          0          0
sub              0          0          0          0          0
common           0          0          0          0          0
1378.101         0          0          0          0          0
chamber          0          0          0          0          0
cso              0          0          0          0          0
sub              0          0          0          0          0
3018.105         0          0          0          0          0
1175.8.19L       0          0          0          0          0
1287.101         0          0          0          0          0
1197.01.1        0          0          0          0          0
siphon           0          0          0          0          0
siphon           0          0          0          0          0
tappan           0          0          0          0          0
sub              0          0          0          0          0
sub              0          0          0          0          0
sub              0          0          0          0          0
cso              0          0          0          0          0
siphon           0          0          0          0          0
sub              0          0          0          0          0
CSO              0          0          0          0          0
8"               0          0          0          0          0

[CONDUITS]
;;Name           From             To               Length     Roughness  InOffset   OutOffset  InitFlow   MaxFlow
;;-------------- ---------------- ---------------- ---------- ---------- ---------- ---------- ---------- ----------
7                roebuck          1242.128         0          0          0          0          0          0
9                1242.128         1242.131         0          0          0          0          0          0
11               1242.131         1330.109         0          0          0          0          0          0
13               1330.109         1330.108         0          0          0          0          0          0
15               1330.108         1330.105         0          0          0          0          0          0
17               1330.105         1202.101         0          0          0          0          0          0
19               1202.101         1098.102         0          0          0          0          0          0
21               1098.102         1370.104         0          0          0          0          0          0
23               1370.104         1215.101         0          0          0          0          0          0
25               1215.101         ???              0          0          0          0          0          0
27               ???              1127.101         0          0          0          0          0          0
29               1127.101         18"              0          0          0          0          0          0
31               18"              siphon           0          0          0          0          0          0
33               siphon           siphon           0          0          0          0          0          0
35               siphon           headworks        0          0          0          0          0          0
37               headworks        WWTF             0          0          0          0          0          0
40               roebuck          1330.109         0          0          0          0          0          0
42               sub              roebuck          0          0          0          0          0          0
45               1242.132.1       1242.133         0          0          0          0          0          0
47               1242.133         1242.134         0          0          0          0          0          0
49               1242.134         3098.110         0          0          0          0          0          0
51               3098.110         2370.102         0          0          0          0          0          0
53               2370.102         2370.101         0          0          0          0          0          0
54               2370.101         1370.104         0          0          0          0          0          0
57               1359.102         1359.101         0          0          0          0          0          0
59               1359.101         1242.133.1       0          0          0          0          0          0
60               1242.133.1       1242.133         0          0          0          0          0          0
62               3098.110         thor/elm         0          0          0          0          0          0
64               thor/elm         ????             0          0          0          0          0          0
65               ????             1370.104         0          0          0          0          0          0
68               n/main           1215.104         0          0          0          0          0          0
70               1215.104         1215.102         0          0          0          0          0          0
71               1215.102         1215.101         0          0          0          0          0          0
73               sub              1359.102         0          0          0          0          0          0
76               sbchrg           2351.101         0          0          0          0          0          0
77               2351.101         3098.110         0          0          0          0          0          0
79               sub              1242.131         0          0          0          0          0          0
81               sub              1330.108         0          0          0          0          0          0
83               sub              1330.105         0          0          0          0          0          0
85               sub              1242.132.1       0          0          0          0          0          0
87               sub              n/main           0          0          0          0          0          0
89               sub              1215.102         0          0          0          0          0          0
92               sub              1202.105         0          0          0          0          0          0
94               1202.105         1202.103         0          0          0          0          0          0
95               1202.103         1202.101         0          0          0          0          0          0
97               sub              1242.134         0          0          0          0          0          0
99               1370.104         CSO              0          0          0          0          0          0
101              6"               1215.101         0          0          0          0          0          0
103              ???              CSO              0          0          0          0          0          0
106              sub              3018.131         0          0          0          0          0          0
110              3018.131         1159.101         0          0          0          0          0          0
112              1159.101         1159.102         0          0          0          0          0          0
114              1159.102         107/378.04       0          0          0          0          0          0
116              107/378.04       1378/086.2       0          0          0          0          0          0
118              1378/086.2       1378.1.1         0          0          0          0          0          0
120              1378.1.1         chamber          0          0          0          0          0          0
121              chamber          18"              0          0          0          0          0          0
123              sub              107/378.04       0          0          0          0          0          0
125              1378/086.2       common           0          0          0          0          0          0
127              common           1378.101         0          0          0          0          0          0
129              1378.101         chamber          0          0          0          0          0          0
130              chamber          chamber          0          0          0          0          0          0
132              chamber          cso              0          0          0          0          0          0
135              sub              3018.105         0          0          0          0          0          0
137              3018.105         1175.8.19L       0          0          0          0          0          0
139              1175.8.19L       1287.101         0          0          0          0          0          0
141              1287.101         1197.01.1        0          0          0          0          0          0
143              1197.01.1        siphon           0          0          0          0          0          0
145              siphon           siphon           0          0          0          0          0          0
148              tappan           siphon           0          0          0          0          0          0
150              sub              1197.01.1        0          0          0          0          0          0
152              sub              1287.101         0          0          0          0          0          0
154              sub              siphon           0          0          0          0          0          0
156              siphon           cso              0          0          0          0          0          0
160              siphon           siphon           0          0          0          0          0          0
161              siphon           headworks        0          0          0          0          0          0
163              sub              1202.101         0          0          0          0          0          0
165              1202.101         CSO              0          0          0          0          0          0
167              8"               roebuck          0          0          0          0          0          0

[XSECTIONS]
;;Link           Shape        Geom1      Geom2      Geom3      Geom4      Barrels
;;-------------- ------------ ---------- ---------- ---------- ---------- ----------
7                CIRCULAR     0          0          0          0          1
9                CIRCULAR     0          0          0          0          1
11               CIRCULAR     0          0          0          0          1
13               CIRCULAR     0          0          0          0          1
15               CIRCULAR     0          0          0          0          1
17               CIRCULAR     0          0          0          0          1
19               CIRCULAR     0          0          0          0          1
21               CIRCULAR     0          0          0          0          1
23               CIRCULAR     0          0          0          0          1
25               CIRCULAR     0          0          0          0          1
27               CIRCULAR     0          0          0          0          1
29               CIRCULAR     0          0          0          0          1
31               CIRCULAR     0          0          0          0          1
33               CIRCULAR     0          0          0          0          1
35               CIRCULAR     0          0          0          0          1
37               CIRCULAR     0          0          0          0          1
40               CIRCULAR     0          0          0          0          1
42               CIRCULAR     0          0          0          0          1
45               CIRCULAR     0          0          0          0          1
47               CIRCULAR     0          0          0          0          1
49               CIRCULAR     0          0          0          0          1
51               CIRCULAR     0          0          0          0          1
53               CIRCULAR     0          0          0          0          1
54               CIRCULAR     0          0          0          0          1
57               CIRCULAR     0          0          0          0          1
59               CIRCULAR     0          0          0          0          1
60               CIRCULAR     0          0          0          0          1
62               CIRCULAR     0          0          0          0          1
64               CIRCULAR     0          0          0          0          1
65               CIRCULAR     0          0          0          0          1
68               CIRCULAR     0          0          0          0          1
70               CIRCULAR     0          0          0          0          1
71               CIRCULAR     0          0          0          0          1
73               CIRCULAR     0          0          0          0          1
76               CIRCULAR     0          0          0          0          1
77               CIRCULAR     0          0          0          0          1
79               CIRCULAR     0          0          0          0          1
81               CIRCULAR     0          0          0          0          1
83               CIRCULAR     0          0          0          0          1
85               CIRCULAR     0          0          0          0          1
87               CIRCULAR     0          0          0          0          1
89               CIRCULAR     0          0          0          0          1
92               CIRCULAR     0          0          0          0          1
94               CIRCULAR     0          0          0          0          1
95               CIRCULAR     0          0          0          0          1
97               CIRCULAR     0          0          0          0          1
99               CIRCULAR     0          0          0          0          1
101              CIRCULAR     0          0          0          0          1
103              CIRCULAR     0          0          0          0          1
106              CIRCULAR     0          0          0          0          1
110              CIRCULAR     0          0          0          0          1
112              CIRCULAR     0          0          0          0          1
114              CIRCULAR     0          0          0          0          1
116              CIRCULAR     0          0          0          0          1
118              CIRCULAR     0          0          0          0          1
120              CIRCULAR     0          0          0          0          1
121              CIRCULAR     0          0          0          0          1
123              CIRCULAR     0          0          0          0          1
125              CIRCULAR     0          0          0          0          1
127              CIRCULAR     0          0          0          0          1
129              CIRCULAR     0          0          0          0          1
130              CIRCULAR     0          0          0          0          1
132              CIRCULAR     0          0          0          0          1
135              CIRCULAR     0          0          0          0          1
137              CIRCULAR     0          0          0          0          1
139              CIRCULAR     0          0          0          0          1
141              CIRCULAR     0          0          0          0          1
143              CIRCULAR     0          0          0          0          1
145              CIRCULAR     0          0          0          0          1
148              CIRCULAR     0          0          0          0          1
150              CIRCULAR     0          0          0          0          1
152              CIRCULAR     0          0          0          0          1
154              CIRCULAR     0          0          0          0          1
156              CIRCULAR     0          0          0          0          1
160              CIRCULAR     0          0          0          0          1
161              CIRCULAR     0          0          0          0          1
163              CIRCULAR     0          0          0          0          1
165              CIRCULAR     0          0          0          0          1
167              CIRCULAR     0          0          0          0          1

[LOSSES]
;;Link           Inlet      Outlet     Average    Flap Gate
;;-------------- ---------- ---------- ---------- ----------
7                0          0          0          NO
9                0          0          0          NO
11               0          0          0          NO
13               0          0          0          NO
15               0          0          0          NO
17               0          0          0          NO
19               0          0          0          NO
21               0          0          0          NO
23               0          0          0          NO
25               0          0          0          NO
27               0          0          0          NO
29               0          0          0          NO
31               0          0          0          NO
33               0          0          0          NO
35               0          0          0          NO
37               0          0          0          NO
40               0          0          0          NO
42               0          0          0          NO
45               0          0          0          NO
47               0          0          0          NO
49               0          0          0          NO
51               0          0          0          NO
53               0          0          0          NO
54               0          0          0          NO
57               0          0          0          NO
59               0          0          0          NO
60               0          0          0          NO
62               0          0          0          NO
64               0          0          0          NO
65               0          0          0          NO
68               0          0          0          NO
70               0          0          0          NO
71               0          0          0          NO
73               0          0          0          NO
76               0          0          0          NO
77               0          0          0          NO
79               0          0          0          NO
81               0          0          0          NO
83               0          0          0          NO
85               0          0          0          NO
87               0          0          0          NO
89               0          0          0          NO
92               0          0          0          NO
94               0          0          0          NO
95               0          0          0          NO
97               0          0          0          NO
99               0          0          0          NO
101              0          0          0          NO
103              0          0          0          NO
106              0          0          0          NO
110              0          0          0          NO
112              0          0          0          NO
114              0          0          0          NO
116              0          0          0          NO
118              0          0          0          NO
120              0          0          0          NO
121              0          0          0          NO
123              0          0          0          NO
125              0          0          0          NO
127              0          0          0          NO
129              0          0          0          NO
130              0          0          0          NO
132              0          0          0          NO
135              0          0          0          NO
137              0          0          0          NO
139              0          0          0          NO
141              0          0          0          NO
143              0          0          0          NO
145              0          0          0          NO
148              0          0          0          NO
150              0          0          0          NO
152              0          0          0          NO
154              0          0          0          NO
156              0          0          0          NO
160              0          0          0          NO
161              0          0          0          NO
163              0          0          0          NO
165              0          0          0          NO
167              0          0          0          NO

[COORDINATES]
;;Node           X-Coord            Y-Coord
;;-------------- ------------------ ------------------
roebuck          17.64              -222.36           
1242.128         17.64              -182.36           
1242.131         17.64              -142.36           
1330.109         37.64              -142.36           
1330.108         57.64              -142.36           
1330.105         97.64              -142.36           
1202.101         137.64             -142.36           
1098.102         137.64             -102.36           
1370.104         137.64             -2.36             
1215.101         137.64             37.64             
???              137.64             77.64             
1127.101         137.64             117.64            
18"              137.64             157.64            
siphon           137.64             197.64            
siphon           137.64             237.64            
headworks        137.64             277.64            
WWTF             177.64             277.64            
sub              -2.36              -242.36           
1242.132.1       17.64              -102.36           
1242.133         17.64              -62.36            
1242.134         17.64              -2.36             
3098.110         77.64              -62.36            
2370.102         117.64             -102.36           
2370.101         117.64             -42.36            
1359.102         -62.36             -122.36           
1359.101         -42.36             -122.36           
1242.133.1       -42.36             -62.36            
thor/elm         77.64              -22.36            
????             97.64              -2.36             
n/main           -2.36              37.64             
1215.104         37.00              37.65             
1215.102         78.41              37.65             
sub              -82.36             -142.36           
sbchrg           37.64              -122.36           
2351.101         57.64              -102.36           
sub              -2.36              -182.36           
sub              37.64              -182.36           
sub              77.64              -182.36           
sub              -2.36              -122.36           
sub              -22.36             17.64             
sub              57.64              17.64             
sub              117.64             -262.36           
1202.105         137.64             -242.36           
1202.103         137.64             -202.36           
sub              -2.36              -22.36            
CSO              177.64             -2.36             
6"               157.64             37.64             
CSO              177.64             77.64             
sub              -22.36             117.64            
3018.131         -2.36              157.64            
1159.101         17.64              157.64            
1159.102         37.64              157.64            
107/378.04       57.64              157.64            
1378/086.2       77.64              157.64            
1378.1.1         97.64              157.64            
chamber          117.64             157.64            
sub              37.64              117.64            
common           77.64              217.64            
1378.101         97.64              217.64            
chamber          117.64             217.64            
cso              117.64             117.64            
sub              -22.36             277.64            
3018.105         -2.36              317.64            
1175.8.19L       -2.36              357.64            
1287.101         37.64              357.64            
1197.01.1        77.64              357.64            
siphon           97.64              357.64            
siphon           137.64             357.64            
tappan           157.64             397.64            
sub              57.64              317.64            
sub              17.64              317.64            
sub              77.64              317.64            
cso              97.64              397.64            
siphon           137.64             317.64            
sub              117.64             -182.36           
CSO              177.64             -142.36           
8"               37.64              -242.36           

[MAP]
DIMENSIONS -82.36 -262.36 177.64 397.64
Units      None

[REPORT]
INPUT            YES
SUBCATCHMENTS    ALL
NODES            ALL
LINKS            ALL



