;; SWMM5 .inp converted from XPSWMM .xp file
;; Generated by XPSWMM Card Reader
;; Source format: XP_CARD | Original title: Dry Weather

[TITLE]
;;Project Title/Notes
Dry Weather

[OPTIONS]
FLOW_UNITS           CFS
INFILTRATION         HORTON
FLOW_ROUTING         DYNWAVE
LINK_OFFSETS         DEPTH
MIN_SLOPE            0.0
ALLOW_PONDING        NO
SKIP_STEADY_STATE    NO
ROUTING_STEP         00:00:15
VARIABLE_STEP        0.75
INERTIAL_DAMPING     PARTIAL
NORMAL_FLOW_LIMITED  BOTH

[JUNCTIONS]
;;Name           Elev       MaxDepth   InitDepth  SurDepth   Aponded
;;-------------- ---------- ---------- ---------- ---------- ----------
18889            516.98     0          0          0          0
18907            513.78     0          0          0          0
18908            514.75     0          0          0          0
47949            517.10     0          0          0          0
18888            517.82     0          0          0          0
18909            514.58     0          0          0          0
18904            514.26     0          0          0          0
18890            519.84     0          0          0          0
18886            514.28     0          0          0          0
18891            519.16     0          0          0          0
18910            515.25     0          0          0          0
18900            510.56     0          0          0          0
18892            516.61     0          0          0          0
18884            510.76     0          0          0          0
18878            510.21     0          0          0          0
18883            509.51     0          0          0          0
18882            507.10     0          0          0          0
18896            513.70     0          0          0          0
48705            667.69     0          0          0          0
49058CO          532.24     0          0          0          0
18881            507.18     0          0          0          0
71594BS          583.14     0          0          0          0
71594            580.03     0          0          0          0
71594AS          583.13     0          0          0          0
02249            668.31     0          0          0          0
49071            531.50     0          0          0          0
47957            506.66     0          0          0          0
18552            507.70     0          0          0          0
49066            535.89     0          0          0          0
47963            505.71     0          0          0          0
72043            532.26     0          0          0          0
18899            509.57     0          0          0          0
47956            506.26     0          0          0          0
49068            533.57     0          0          0          0
02246            656.63     0          0          0          0
18912            513.53     0          0          0          0
02238            666.56     0          0          0          0
32596            538.00     0          0          0          0
02247            654.63     0          0          0          0
49074            528.44     0          0          0          0
18550            503.56     0          0          0          0
18551            504.07     0          0          0          0
18870            503.76     0          0          0          0
22034            520.33     0          0          0          0
26798            579.07     0          0          0          0
26797            580.64     0          0          0          0
67757            528.74     0          0          0          0
47970            502.53     0          0          0          0
18558            505.45     0          0          0          0
02245            659.76     0          0          0          0
18559            502.60     0          0          0          0
18538            503.55     0          0          0          0
18560            501.47     0          0          0          0
46275            660.93     0          0          0          0
18519            503.25     0          0          0          0
18868            501.08     0          0          0          0
48703            651.92     0          0          0          0
48702            649.34     0          0          0          0
22033            524.15     0          0          0          0
22019            534.58     0          0          0          0
72058BH          567.29     0          0          0          0
02240            661.15     0          0          0          0
18825            505.30     0          0          0          0
49079            531.83     0          0          0          0
18814            509.78     0          0          0          0
49112            562.69     0          0          0          0
47955            500.20     0          0          0          0
18866            500.14     0          0          0          0
22018            535.24     0          0          0          0
18867            499.75     0          0          0          0
49082            545.26     0          0          0          0
48701            651.00     0          0          0          0
18834            501.70     0          0          0          0
02447            578.90     0          0          0          0
02446            580.20     0          0          0          0
18568            498.68     0          0          0          0
18567            498.68     0          0          0          0
46273            658.58     0          0          0          0
18823BD          503.53     0          0          0          0
18823            507.94     0          0          0          0
22036            521.92     0          0          0          0
22014            526.97     0          0          0          0
18864            498.84     0          0          0          0
46269            661.46     0          0          0          0
49086            548.24     0          0          0          0
22012            537.39     0          0          0          0
49112T           562.75     0          0          0          0
47972            499.48     0          0          0          0
46274            656.62     0          0          0          0
02231            653.00     0          0          0          0
48695            650.60     0          0          0          0
48699            654.00     0          0          0          0
21827            573.40     0          0          0          0
02485            579.74     0          0          0          0
18836            503.36     0          0          0          0
02224            657.98     0          0          0          0
46270            657.61     0          0          0          0
18830            515.00     0          0          0          0
18556            499.65     0          0          0          0
18557            500.00     0          0          0          0
02448            577.58     0          0          0          0
48692            648.97     0          0          0          0
47986            505.26     0          0          0          0
22024            521.42     0          0          0          0
02230            651.97     0          0          0          0
18862            498.44     0          0          0          0
18863            498.07     0          0          0          0
48690            650.86     0          0          0          0
18831            515.54     0          0          0          0
49108            555.21     0          0          0          0
18571            498.14     0          0          0          0
48689            652.15     0          0          0          0
22017            538.37     0          0          0          0
18541            499.37     0          0          0          0
22026            519.08     0          0          0          0
22037            519.36     0          0          0          0
02511            581.94     0          0          0          0
32560            628.52     0          0          0          0
22009            539.50     0          0          0          0
02229            655.08     0          0          0          0
18816            511.35     0          0          0          0
32559            632.35     0          0          0          0
47973            497.20     0          0          0          0
47973BD          494.68     0          0          0          0
47974            497.14     0          0          0          0
02225            653.16     0          0          0          0
18838            505.53     0          0          0          0
18521            501.21     0          0          0          0
02221            649.57     0          0          0          0
02478            577.60     0          0          0          0
02479            576.66     0          0          0          0
22022            525.98     0          0          0          0
21850            531.85     0          0          0          0
02226            654.24     0          0          0          0
22016            539.38     0          0          0          0
02481            569.67     0          0          0          0
18821            508.67     0          0          0          0
45738            571.57     0          0          0          0
32561            632.82     0          0          0          0
49111            572.25     0          0          0          0
02487            573.67     0          0          0          0
18534            499.67     0          0          0          0
49159            513.99     0          0          0          0
18832            515.59     0          0          0          0
18522            498.61     0          0          0          0
47959            499.87     0          0          0          0
18542            498.93     0          0          0          0
02510            582.07     0          0          0          0
02480            575.23     0          0          0          0
02517            581.59     0          0          0          0
18574            496.91     0          0          0          0
18564            497.05     0          0          0          0
72050            559.19     0          0          0          0
46229            659.21     0          0          0          0
21823            569.59     0          0          0          0
02493            574.72     0          0          0          0
18809            510.79     0          0          0          0
18817            512.39     0          0          0          0
18533            498.18     0          0          0          0
22039            521.42     0          0          0          0
71305            647.30     0          0          0          0
18839            504.65     0          0          0          0
18595            495.41     0          0          0          0
22006            523.99     0          0          0          0
22021            526.46     0          0          0          0
22047            517.00     0          0          0          0
48653            618.85     0          0          0          0
02453            569.64     0          0          0          0
02452            570.11     0          0          0          0
71319            634.42     0          0          0          0
49089            550.28     0          0          0          0
18820            509.10     0          0          0          0
18810            508.74     0          0          0          0
32573            631.07     0          0          0          0
32572            634.43     0          0          0          0
18811            507.80     0          0          0          0
49110            552.33     0          0          0          0
18859            502.47     0          0          0          0
02483            564.12     0          0          0          0
02494            577.33     0          0          0          0
49101            567.49     0          0          0          0
18850            498.49     0          0          0          0
18851            498.31     0          0          0          0
18583            496.42     0          0          0          0
02474            568.68     0          0          0          0
49091            550.74     0          0          0          0
47960            495.12     0          0          0          0
02508            578.54     0          0          0          0
48652            602.38     0          0          0          0
48654            613.15     0          0          0          0
32583            625.80     0          0          0          0
48676            653.60     0          0          0          0
02218            639.63     0          0          0          0
32589            631.57     0          0          0          0
02520            583.29     0          0          0          0
02521            581.15     0          0          0          0
22040            519.50     0          0          0          0
18594            494.88     0          0          0          0
73001            637.14     0          0          0          0
18844            502.16     0          0          0          0
02507            581.51     0          0          0          0
18843            502.05     0          0          0          0
48616            643.75     0          0          0          0
18531            495.64     0          0          0          0
32579            618.25     0          0          0          0
02489            570.94     0          0          0          0
47978            500.03     0          0          0          0
49100            565.68     0          0          0          0
02473            566.95     0          0          0          0
18576            494.48     0          0          0          0
18819            509.18     0          0          0          0
18818            509.74     0          0          0          0
21822            561.23     0          0          0          0
02506            584.44     0          0          0          0
18852            499.79     0          0          0          0
32585            619.90     0          0          0          0
02472            563.62     0          0          0          0
18846            501.80     0          0          0          0
18858            503.28     0          0          0          0
02522            576.24     0          0          0          0
32580            597.13     0          0          0          0
46222            660.34     0          0          0          0
18845            501.54     0          0          0          0
02523            569.81     0          0          0          0
18588            493.60     0          0          0          0
49088            532.97     0          0          0          0
48655            618.33     0          0          0          0
22004            514.99     0          0          0          0
49099            560.70     0          0          0          0
18589            492.92     0          0          0          0
48637            591.94     0          0          0          0
18586            493.11     0          0          0          0
72012            535.71     0          0          0          0
01657            657.47     0          0          0          0
02462            556.59     0          0          0          0
48661            591.49     0          0          0          0
72052            549.74     0          0          0          0
48635            597.69     0          0          0          0
48662            590.85     0          0          0          0
72075            494.11     0          0          0          0
18848            499.37     0          0          0          0
78932            500.50     0          0          0          0
18849            498.56     0          0          0          0
18847            499.18     0          0          0          0
02460            562.79     0          0          0          0
22043            507.63     0          0          0          0
22044            507.94     0          0          0          0
21849            533.13     0          0          0          0
48638            587.58     0          0          0          0
01656            653.65     0          0          0          0
01658            655.16     0          0          0          0
71320            617.22     0          0          0          0
32569            606.43     0          0          0          0
48679            644.60     0          0          0          0
48632            611.20     0          0          0          0
48663            585.04     0          0          0          0
49095            554.92     0          0          0          0
66153            549.47     0          0          0          0
22050            518.56     0          0          0          0
48656            621.54     0          0          0          0
18877            496.72     0          0          0          0
48665            608.80     0          0          0          0
21839            533.07     0          0          0          0
02217            652.06     0          0          0          0
21835            548.35     0          0          0          0
02524            581.04     0          0          0          0
48667            630.70     0          0          0          0
72011            538.50     0          0          0          0
21848            535.53     0          0          0          0
18806            498.17     0          0          0          0
18853            500.95     0          0          0          0
48639            582.72     0          0          0          0
18807            498.75     0          0          0          0
18229            499.86     0          0          0          0
18527            491.72     0          0          0          0
18582            494.82     0          0          0          0
21821            553.14     0          0          0          0
48657            624.00     0          0          0          0
02215            652.39     0          0          0          0
46219            659.14     0          0          0          0
21833            544.46     0          0          0          0
02463            566.61     0          0          0          0
02214            651.31     0          0          0          0
18585            493.72     0          0          0          0
49096            559.51     0          0          0          0
72010            540.00     0          0          0          0
21847            535.97     0          0          0          0
72073            509.25     0          0          0          0
22002            508.19     0          0          0          0
02464            565.29     0          0          0          0
02469            555.90     0          0          0          0
02525            580.26     0          0          0          0
02468            556.55     0          0          0          0
49098            552.14     0          0          0          0
48640            580.30     0          0          0          0
47979            500.94     0          0          0          0
18841            506.04     0          0          0          0
21846            535.75     0          0          0          0
02496            569.49     0          0          0          0
21840            527.15     0          0          0          0
22051            516.80     0          0          0          0
22001            508.78     0          0          0          0
66152            549.79     0          0          0          0
72051            548.51     0          0          0          0
18231            495.98     0          0          0          0
21836            547.01     0          0          0          0
28922            540.12     0          0          0          0
48642            615.50     0          0          0          0
02466            561.80     0          0          0          0
02465            565.07     0          0          0          0
21831            538.95     0          0          0          0
18802            497.03     0          0          0          0
18579            492.39     0          0          0          0
18801            497.53     0          0          0          0
26836            553.45     0          0          0          0
18592            490.43     0          0          0          0
02467            565.34     0          0          0          0
21837            547.38     0          0          0          0
18581            493.64     0          0          0          0
26838            555.00     0          0          0          0
18856            504.48     0          0          0          0
18230            498.99     0          0          0          0
45735            557.63     0          0          0          0
18549            490.67     0          0          0          0
18854            499.53     0          0          0          0
49160            510.00     0          0          0          0
49097            560.12     0          0          0          0
48217            653.59     0          0          0          0
21832            541.40     0          0          0          0
18504            490.27     0          0          0          0
89075            547.17     0          0          0          0
73114            497.78     0          0          0          0
22055            510.75     0          0          0          0
21829            537.68     0          0          0          0
18516            495.09     0          0          0          0
48648            623.81     0          0          0          0
72076            507.86     0          0          0          0
21828            536.56     0          0          0          0
21842BH          523.24     0          0          0          0
49219            493.32     0          0          0          0
48644            574.72     0          0          0          0
18481            490.02     0          0          0          0
89074            534.50     0          0          0          0
89076            542.33     0          0          0          0
18505            489.97     0          0          0          0
48645            573.76     0          0          0          0
02498            570.19     0          0          0          0
49161            533.02     0          0          0          0
24703            650.37     0          0          0          0
02499            571.12     0          0          0          0
20635            525.94     0          0          0          0
01659            660.55     0          0          0          0
02501            564.25     0          0          0          0
18452            502.34     0          0          0          0
48671            634.89     0          0          0          0
02529            557.13     0          0          0          0
65813            507.65     0          0          0          0
18480            490.96     0          0          0          0
18506            491.30     0          0          0          0
49164            528.01     0          0          0          0
18437            489.83     0          0          0          0
73659            572.75     0          0          0          0
20631            509.14     0          0          0          0
27208T           519.55     0          0          0          0
73626            629.57     0          0          0          0
20639            518.92     0          0          0          0
18417            499.81     0          0          0          0
49163            534.12     0          0          0          0
18509            493.66     0          0          0          0
18508            492.53     0          0          0          0
18447            495.67     0          0          0          0
26479            532.14     0          0          0          0
73665            584.00     0          0          0          0
49513            516.60     0          0          0          0
67748            533.13     0          0          0          0
73657            567.50     0          0          0          0
29065            661.78     0          0          0          0
71762            504.23     0          0          0          0
66231            541.79     0          0          0          0
29064            661.06     0          0          0          0
26659T           503.65     0          0          0          0
73624            616.90     0          0          0          0
49316            514.22     0          0          0          0
18457            492.97     0          0          0          0
18456            492.26     0          0          0          0
26655            503.09     0          0          0          0
24655            624.70     0          0          0          0
18371            499.07     0          0          0          0
26477            537.12     0          0          0          0
26475            537.40     0          0          0          0
20638            502.92     0          0          0          0
45026            663.78     0          0          0          0
71759BS          502.14     0          0          0          0
71759            500.58     0          0          0          0
20782            546.93     0          0          0          0
18449            501.83     0          0          0          0
71061            514.95     0          0          0          0
20640            501.29     0          0          0          0
73629            634.75     0          0          0          0
18436            491.17     0          0          0          0
71757BH          490.83     0          0          0          0
27134            509.76     0          0          0          0
20293            520.16     0          0          0          0
66230            529.20     0          0          0          0
71759AS          502.58     0          0          0          0
20651            542.59     0          0          0          0
20655            515.70     0          0          0          0
18448            495.30     0          0          0          0
66232            515.09     0          0          0          0
18479            491.32     0          0          0          0
66160            500.56     0          0          0          0
71756            496.48     0          0          0          0
26657T           503.36     0          0          0          0
24066            502.05     0          0          0          0
26657            504.48     0          0          0          0
24702            644.70     0          0          0          0
20294            511.50     0          0          0          0
18483            489.02     0          0          0          0
24698            639.90     0          0          0          0
18500            487.71     0          0          0          0
24591            624.80     0          0          0          0
66229            519.74     0          0          0          0
20290            503.17     0          0          0          0
20648            529.81     0          0          0          0
24691            652.35     0          0          0          0
20786            554.12     0          0          0          0
26653            497.51     0          0          0          0
18502            488.87     0          0          0          0
71764            499.00     0          0          0          0
20288            504.57     0          0          0          0
20785            554.83     0          0          0          0
71751            496.29     0          0          0          0
49517            521.59     0          0          0          0
20642            499.76     0          0          0          0
20649            527.13     0          0          0          0
18425T           490.09     0          0          0          0
20783            576.05     0          0          0          0
27201            528.29     0          0          0          0
20643            500.50     0          0          0          0
18435            492.39     0          0          0          0
29067            666.38     0          0          0          0
25675            510.18     0          0          0          0
66206T           506.33     0          0          0          0
49520            522.74     0          0          0          0
20286            502.81     0          0          0          0
18485BH          485.86     0          0          0          0
18498            490.04     0          0          0          0
25422            512.54     0          0          0          0
66202T           501.87     0          0          0          0
46908            494.45     0          0          0          0
29056            670.83     0          0          0          0
18515            495.51     0          0          0          0
18476            489.46     0          0          0          0
24652            604.00     0          0          0          0
25418            509.96     0          0          0          0
24701            636.00     0          0          0          0
49327            559.32     0          0          0          0
18441            491.71     0          0          0          0
66203            507.43     0          0          0          0
21356            644.39     0          0          0          0
20289            505.61     0          0          0          0
29057            668.09     0          0          0          0
20283            512.99     0          0          0          0
24593            614.70     0          0          0          0
51745            494.06     0          0          0          0
18445            493.00     0          0          0          0