;; SWMM5 .inp converted from XPSWMM .xp file
;; Generated by XPSWMM Card Reader
;; Source format: XP_CARD | Original title: PORT RICHMOND WPCP

[TITLE]
;;Project Title/Notes
PORT RICHMOND WPCP

[OPTIONS]
FLOW_UNITS           CFS
INFILTRATION         HORTON
FLOW_ROUTING         DYNWAVE
LINK_OFFSETS         DEPTH
MIN_SLOPE            0.0
ALLOW_PONDING        NO
SKIP_STEADY_STATE    NO
ROUTING_STEP         00:00:10
VARIABLE_STEP        0.75
INERTIAL_DAMPING     PARTIAL
NORMAL_FLOW_LIMITED  BOTH
MAX_TRIALS           30
HEAD_TOLERANCE       0.0033

[JUNCTIONS]
;;Name           Elev       MaxDepth   InitDepth  SurDepth   Aponded
;;-------------- ---------- ---------- ---------- ---------- ----------
R-01             10.20      0          0          0          0
R-03             27.50      0          0          0          0
R-04             12.20      0          0          0          0
R-05             5.70       0          0          0          0
R-06             4.90       0          0          0          0
R-07             5.00       0          0          0          0
R-08             4.70       0          0          0          0
R-09             5.50       0          0          0          0
R-10             7.20       0          0          0          0
R-11             9.20       0          0          0          0
R-13             4.80       0          0          0          0
W2-01            15.00      0          0          0          0
W2-R01           4.20       0          0          0          0
WR-1             4.20       0          0          0          0
TG-W01           4.20       0          0          0          0
RW-W01           4.20       0          0          0          0
W2-29            10.00      0          0          0          0
WR02Z            10.70      0          0          0          0
WR-02            10.70      0          0          0          0
TG-W02           10.70      0          0          0          0
RW-W02           10.70      0          0          0          0
W2-32            8.50       0          0          0          0
W2-40            5.50       0          0          0          0
WR03Z            4.50       0          0          0          0
WR-03            4.50       0          0          0          0
TG-W03           4.50       0          0          0          0
RW-W03           4.50       0          0          0          0
W2-41            5.00       0          0          0          0
W2-42            4.00       0          0          0          0
W2-R05           4.30       0          0          0          0
WR04Z            4.50       0          0          0          0
WR-04            4.50       0          0          0          0
TG-W04           4.50       0          0          0          0
RW-W04           4.50       0          0          0          0
WR05Z            4.30       0          0          0          0
WR-05            4.30       0          0          0          0
TG-W05           4.30       0          0          0          0
RW-W05           4.30       0          0          0          0
W1-15            4.50       0          0          0          0
CS-W06           4.00       0          0          0          0
WR-06            4.00       0          0          0          0
WR06Z            4.00       0          0          0          0
TG-W06           4.00       0          0          0          0
RW-W06           4.00       0          0          0          0
W1-07            6.50       0          0          0          0
R-37             3.00       0          0          0          0
TG-37            3.00       0          0          0          0
R037Z            3.00       0          0          0          0
RW-37            3.00       0          0          0          0
W1-R36           3.87       0          0          0          0
CS-36            3.87       0          0          0          0
TG-36            4.30       0          0          0          0
RW-36            4.30       0          0          0          0
W-R35            8.40       0          0          0          0
CS-35A           8.40       0          0          0          0
R-35             8.40       0          0          0          0
TG-35            8.40       0          0          0          0
RW-35            8.40       0          0          0          0
W-R35Z           8.40       0          0          0          0
JC               12.50      0          0          0          0
R1Z              10.20      0          0          0          0
E1-R03           27.50      0          0          0          0
E1-R04           11.50      0          0          0          0
TG-01            10.20      0          0          0          0
RW-01            10.20      0          0          0          0
RW-03            27.50      0          0          0          0
TG-04            12.20      0          0          0          0
R04Z             12.20      0          0          0          0
RW-04            12.20      0          0          0          0
E1-21            9.32       0          0          0          0
E1-R05           7.90       0          0          0          0
R05Z             5.70       0          0          0          0
TG-05            5.70       0          0          0          0
RW-05            5.70       0          0          0          0
E1-26            6.40       0          0          0          0
TG-06            4.90       0          0          0          0
R06Z             4.90       0          0          0          0
RW-06            4.90       0          0          0          0
E1-28            5.00       0          0          0          0
TG-07            5.00       0          0          0          0
R07Z             5.00       0          0          0          0
RW-07            5.00       0          0          0          0
E1-R08           7.00       0          0          0          0
R08Z             4.70       0          0          0          0
TG-08            4.70       0          0          0          0
RW-08            4.70       0          0          0          0
E1-35            5.78       0          0          0          0
R09Z             5.50       0          0          0          0
TG-09            5.50       0          0          0          0
RW-09            5.50       0          0          0          0
E1-40B           7.30       0          0          0          0
R10Z             7.20       0          0          0          0
TG-10            7.20       0          0          0          0
RW-10            7.20       0          0          0          0
E1-42B           5.30       0          0          0          0
R11Z             9.20       0          0          0          0
TG-11            9.20       0          0          0          0
RW-11            9.20       0          0          0          0
E1-R13           4.81       0          0          0          0
R13Z             4.80       0          0          0          0
TG-13            4.80       0          0          0          0
RW-13            4.80       0          0          0          0
E1-R15           6.85       0          0          0          0
R15Z             6.80       0          0          0          0
R-15             6.80       0          0          0          0
TG-15            6.80       0          0          0          0
RW-15            6.80       0          0          0          0
E1-52            7.70       0          0          0          0
E1-R16           4.30       0          0          0          0
R-16             4.30       0          0          0          0
TG-16            4.30       0          0          0          0
RW-16            4.30       0          0          0          0
R-17             7.50       0          0          0          0
TG-17            7.50       0          0          0          0
RW-17            7.50       0          0          0          0
E2-01            38.71      0          0          0          0
E2-01Z           52.70      0          0          0          0
E2-01Y           52.04      0          0          0          0
E2-01X           63.25      0          0          0          0
E2-01W           57.34      0          0          0          0
E2-R18           54.58      0          0          0          0
R18Z             28.50      0          0          0          0
TG-18            28.50      0          0          0          0
RW-18            28.50      0          0          0          0
R-18             28.50      0          0          0          0
E2-R18Z          34.50      0          0          0          0
E2-R18Y          27.86      0          0          0          0
E2-02            25.37      0          0          0          0
R19Z             25.00      0          0          0          0
R-19             25.00      0          0          0          0
TG-19            25.00      0          0          0          0
RW-19            25.00      0          0          0          0
E2-02Z           26.82      0          0          0          0
E2-02Y           24.50      0          0          0          0
E2-03            18.00      0          0          0          0
R20Z             12.97      0          0          0          0
R-20             12.97      0          0          0          0
TG-20            12.97      0          0          0          0
RW-20            12.97      0          0          0          0
E2-03Z           25.70      0          0          0          0
E2-03Y           28.03      0          0          0          0
E2-04            28.90      0          0          0          0
R21Z             30.00      0          0          0          0
E2-R23           27.74      0          0          0          0
R23Z             26.90      0          0          0          0
R-23             26.90      0          0          0          0
TG-23            26.90      0          0          0          0
RW-23            26.90      0          0          0          0
E2-06            20.74      0          0          0          0
R-27Z            21.50      0          0          0          0
R-27             21.50      0          0          0          0
RW-27            21.50      0          0          0          0
E2-07            5.28       0          0          0          0
CS-28            6.40       0          0          0          0
R-28             6.40       0          0          0          0
R28Z             6.40       0          0          0          0
TG-28            6.40       0          0          0          0
RW-28            6.40       0          0          0          0
E2-08            8.96       0          0          0          0
R29Z             8.50       0          0          0          0
R-29             8.50       0          0          0          0
TG-29            8.50       0          0          0          0
RW-29            8.50       0          0          0          0
E2-09            14.00      0          0          0          0
E2-10            9.79       0          0          0          0
R31Z             9.20       0          0          0          0
R-31             9.20       0          0          0          0
TG-31            9.20       0          0          0          0
RW-31            9.20       0          0          0          0
E2-11            16.11      0          0          0          0
R32Z             16.50      0          0          0          0
R-32             16.50      0          0          0          0
TG-32            16.50      0          0          0          0
RW-32            16.50      0          0          0          0
E2-12            5.00       0          0          0          0
R33Z             5.00       0          0          0          0
R-33             5.00       0          0          0          0
TG-33            5.00       0          0          0          0
RW-33            5.00       0          0          0          0
E2-R34           8.80       0          0          0          0
R34Z             8.80       0          0          0          0
R-34             8.80       0          0          0          0
TG-34            8.80       0          0          0          0
RW-34            8.40       0          0          0          0
R-21             30.00      0          0          0          0
DISCH            12.50      0          0          0          0
CS-13B           4.80       0          0          0          0
CS-13A           4.80       0          0          0          0
R-24             26.30      0          0          0          0
R-25             25.00      0          0          0          0
R-26             22.00      0          0          0          0
CS-01            10.20      0          0          0          0
E1-05            14.50      0          0          0          0
CS-03            27.50      0          0          0          0
E1-10            33.40      0          0          0          0
E1-11            31.00      0          0          0          0
E1-13            36.70      0          0          0          0
E1-15            39.22      0          0          0          0
E1-17            29.05      0          0          0          0
CS-04            12.20      0          0          0          0
CS-05            5.70       0          0          0          0
CS-06            4.90       0          0          0          0
CS-07            7.00       0          0          0          0
E1-30            6.40       0          0          0          0
CS-08            4.70       0          0          0          0
E1-33            5.27       0          0          0          0
CS-09            5.50       0          0          0          0
E1-37            6.14       0          0          0          0
CS-10            7.20       0          0          0          0
CS-11            9.20       0          0          0          0
E1-44B           6.64       0          0          0          0
E1-45B           6.40       0          0          0          0
CS-15            6.80       0          0          0          0
E1-47            6.68       0          0          0          0
E1-48            7.10       0          0          0          0
E1-49            8.15       0          0          0          0
CS-17            7.50       0          0          0          0
R17Z             7.50       0          0          0          0
CS-16            4.30       0          0          0          0
E1-56            4.32       0          0          0          0
E1-54            4.00       0          0          0          0
CS-18            28.50      0          0          0          0
R18Y             35.60      0          0          0          0
CS-19            25.00      0          0          0          0
R19Y             25.37      0          0          0          0
CS-20            20.00      0          0          0          0
R20Y             18.00      0          0          0          0
CS-21            30.00      0          0          0          0
RW-21            30.00      0          0          0          0
E2-04Z           33.40      0          0          0          0
E2-04Y           33.70      0          0          0          0
E2-04X           34.10      0          0          0          0
E2-05            31.21      0          0          0          0
CS-23            26.90      0          0          0          0
E2-R23Z          26.08      0          0          0          0
E2-R23Y          23.60      0          0          0          0
CS-24            26.30      0          0          0          0
RW-24            26.30      0          0          0          0
CS-25            25.00      0          0          0          0
RW-25            25.00      0          0          0          0
CS-26            22.00      0          0          0          0
RW-26            22.00      0          0          0          0
R27Y             20.74      0          0          0          0
CS-27            21.50      0          0          0          0
E2-06Z           18.11      0          0          0          0
E2-06Y           10.25      0          0          0          0
R28Y             5.28       0          0          0          0
CS-29            8.50       0          0          0          0
R29Y             8.96       0          0          0          0
CS-31            9.20       0          0          0          0
R31Y             9.79       0          0          0          0
CS-32            16.50      0          0          0          0
R32Y             16.11      0          0          0          0
E2-11Z           13.50      0          0          0          0
E2-11Y           8.14       0          0          0          0
E2-12Z           16.50      0          0          0          0
E2-12Y           18.35      0          0          0          0
E2-12X           12.05      0          0          0          0
R33Y             4.90       0          0          0          0
CS-33            5.00       0          0          0          0
CS-34            8.80       0          0          0          0
W2-06            13.00      0          0          0          0
W2-10            8.00       0          0          0          0
W2-14            6.00       0          0          0          0
CS-W01           4.20       0          0          0          0
W2-20            14.00      0          0          0          0
W2-23            14.00      0          0          0          0
W2-26            11.50      0          0          0          0
CS-W02           10.70      0          0          0          0
WR02Y            10.00      0          0          0          0
W2-35            7.00       0          0          0          0
W2-37            5.50       0          0          0          0
W2-39            4.50       0          0          0          0
WR03Y            5.50       0          0          0          0
CS-W03           4.50       0          0          0          0
CS-W04           4.50       0          0          0          0
WR04Y            4.00       0          0          0          0
W2-43            7.00       0          0          0          0
W2-44            12.00      0          0          0          0
W2-45            12.00      0          0          0          0
W2-46            8.00       0          0          0          0
W2-47            6.00       0          0          0          0
CS-W05           4.30       0          0          0          0
W2-49            8.00       0          0          0          0
W2-50            9.00       0          0          0          0
W2-51            11.00      0          0          0          0
W2-52            7.50       0          0          0          0
W2-53            6.50       0          0          0          0
W2-54            4.50       0          0          0          0
W2-55            4.50       0          0          0          0
W1-13            10.50      0          0          0          0
W1-11            21.00      0          0          0          0
W1-10            20.00      0          0          0          0
W1-09            14.00      0          0          0          0
CS-37            3.00       0          0          0          0
R37Y             6.50       0          0          0          0
W1-05            10.00      0          0          0          0
W1-03            8.00       0          0          0          0
W1-02            5.20       0          0          0          0
CS-35B           8.40       0          0          0          0
RW               10.50      0          0          0          0
MR-FM1           85.00      0          0          0          0
MR-FM2           80.00      0          0          0          0
MR-FM3           70.00      0          0          0          0
MR-FM4           60.00      0          0          0          0
MR-FM5           55.00      0          0          0          0
MR-6             42.00      0          0          0          0
MR-7             35.00      0          0          0          0
CS-MR            80.00      0          0          0          0
TG-MR            4.30       0          0          0          0
RW-MR            4.30       0          0          0          0
CS-13C           10.00      0          0          0          0
CS-36Z           3.87       0          0          0          0
CS-35C           8.40       0          0          0          0
W6-01            4.00       0          0          0          0
R-07a            7.00       0          0          0          0
R15a             6.80       0          0          0          0
R20a             15.00      0          0          0          0
R32a             16.50      0          0          0          0
R33a             5.00       0          0          0          0
R29a             8.50       0          0          0          0
CS-36y           3.87       0          0          0          0

[STORAGE]
;;Name           Elev       MaxDepth   InitDepth  Shape      Curve/Params
;;-------------- ---------- ---------- ---------- ---------- ----------
R-02             9.00       0          0          FUNCTIONAL 200.00 0          0
HAN-PS           7.70       0          0          FUNCTIONAL 1300.00 0          0
WELL             12.50      -0.50      0          FUNCTIONAL 2000.00 0          0
MR-PS            85.00      0          0          FUNCTIONAL 300.00 0          0

[CONDUITS]
;;Name           From             To               Length     Roughness  InOffset   OutOffset  InitFlow   MaxFlow
;;-------------- ---------------- ---------------- ---------- ---------- ---------- ---------- ---------- ----------
001              W2-01            W2-06            569.37     0.0150     5.92       3.52       0          0
W190             TG-W01           RW-W01           250.00     0.0150     -1.47      -3.97      0          0
W100             W2-R01           W2-20            487.52     0.0150     -3.56      -4.04      0          0
W250             WR02Z            WR02Y            250.00     0.0056     1.50       0.92       0          0
W290             TG-W02           RW-W02           250.00     0.0150     2.20       -0.30      0          0
W200             W2-29            W2-32            479.94     0.0150     -5.49      -5.96      0          0
W201             W2-32            W2-35            465.16     0.0150     -5.96      -6.31      0          0
W350             WR03Z            WR03Y            250.00     0.0135     -4.66      -5.16      0          0
W390             TG-W03           RW-W03           250.00     0.0150     -0.79      -3.29      0          0
W300             W2-40            W2-41            364.20     0.0140     -9.62      -9.79      0          0
W301             W2-41            W2-42            362.57     0.0140     -9.79      -9.87      0          0
W400             W2-42            W2-43            408.97     0.0140     -9.87      -10.05     0          0
W450             WR04Z            WR04Y            250.00     0.0056     -3.85      -4.03      0          0
W490             TG-W04           RW-W04           250.00     0.0140     -0.85      -3.35      0          0
W570             WR05Z            W2-R05           250.00     0.0050     -3.50      -11.02     0          0
W590             TG-W05           RW-W05           250.00     0.0140     -1.15      -3.65      0          0
W500             W2-R05           W2-49            401.83     0.0140     -11.02     -11.34     0          0
W507             W2-55            W1-15            283.90     0.0140     -12.64     -12.98     0          0
W680             W6-01            WR-06            250.00     0.0140     -4.34      -7.10      0          0
W670             WR06Z            W1-15            500.00     0.0015     -7.95      -12.81     0          0
W690             TG-W06           RW-W06           250.00     0.0140     -4.36      -6.86      0          0
W600             W1-15            W1-13            426.46     0.0140     -12.98     -13.28     0          0
3750             R037Z            R37Y             250.00     0.0131     -6.50      -6.95      0          0
3790             TG-37            RW-37            100.00     0.0150     -3.70      -4.70      0          0
3700             W1-07            W1-05            473.64     0.0140     -14.52     -14.87     0          0
3682             CS-36            CS-36y           600.00     0.0140     -7.78      -8.35      0          0
3690             TG-36            RW-36            250.00     0.0140     -5.30      -7.80      0          0
3600             W1-R36           W-R35            565.17     0.0140     -16.46     -16.87     0          0
3580             CS-35A           R-35             250.00     0.0150     5.88       -1.62      0          0
3590             TG-35            RW-35            250.00     0.0150     -1.10      -6.10      0          0
3500             W-R35Z           JC               406.43     0.0140     -17.89     -18.82     0          0
150              R1Z              R-02             250.00     0.0510     -3.90      -15.63     0          0
300              E1-R03           E1-10            448.00     0.0340     1.50       0.75       0          0
190              TG-01            RW-01            250.00     0.0150     -0.33      -2.83      0          0
390              R-03             RW-03            300.00     0.0150     7.80       6.30       0          0
470              R04Z             E1-R04           250.00     0.0077     -1.20      -3.50      0          0
490              TG-04            RW-04            250.00     0.0150     0.56       -1.94      0          0
400              E1-R04           E1-21            396.80     0.0150     -3.50      -4.43      0          0
401              E1-21            E1-R05           417.40     0.0150     -4.43      -5.40      0          0
570              R05Z             E1-R05           250.00     0.0029     -2.00      -5.40      0          0
590              TG-05            RW-05            250.00     0.0150     -1.99      -4.49      0          0
500              E1-R05           E1-26            457.80     0.0150     -5.40      -6.58      0          0
650              R06Z             E1-26            250.00     0.0150     -4.80      -6.58      0          0
690              TG-06            RW-06            250.00     0.0150     -1.45      -3.95      0          0
600              E1-26            E1-28            568.80     0.0150     -6.58      -7.97      0          0
750              R07Z             E1-28            250.00     0.0150     -6.26      -8.23      0          0
790              TG-07            RW-07            250.00     0.0140     -1.40      -3.90      0          0
700              E1-28            E1-30            375.60     0.0150     -8.23      -8.78      0          0
870              R08Z             E1-R08           250.00     0.0015     -4.81      -9.42      0          0
890              TG-08            RW-08            250.00     0.0150     -3.55      -6.05      0          0
800              E1-R08           E1-33            512.80     0.0150     -9.42      -10.09     0          0
970              R09Z             E1-35            250.00     0.0150     -5.62      -10.96     0          0
990              TG-09            RW-09            250.00     0.0150     -3.68      -6.18      0          0
900              E1-35            E1-37            443.00     0.0150     -10.96     -11.61     0          0
1070             R10Z             E1-40B           250.00     0.0150     -3.62      -12.50     0          0
1090             TG-10            RW-10            250.00     0.0150     1.04       -1.46      0          0
1000             E1-40B           E1-42B           476.50     0.0150     -12.50     -13.25     0          0
1170             R11Z             E1-42B           250.00     0.0150     -1.33      -13.25     0          0
1190             TG-11            RW-11            500.00     0.0242     3.00       -0.90      0          0
1100             E1-42B           E1-R13           405.00     0.0233     -13.25     -14.45     0          0
1370             R13Z             E1-R13           250.00     0.0015     -10.00     -14.45     0          0
1390             TG-13            RW-13            250.00     0.0150     -1.00      -2.25      0          0
1300             E1-R13           E1-44B           530.06     0.0140     -14.45     -14.93     0          0
1570             R15Z             E1-R15           250.00     0.0015     -4.68      -15.90     0          0
1590             TG-15            RW-15            500.00     0.0276     -2.72      -7.82      0          0
1500             E1-R15           E1-47            226.76     0.0140     -15.90     -16.09     0          0
1600             E1-R16           E1-54            365.80     0.0150     -10.02     -10.75     0          0
1690             TG-16            RW-16            250.00     0.0150     -1.40      -3.90      0          0
1602             E1-52            HAN-PS           250.00     0.0043     -17.26     -17.28     0          0
1750             R17Z             E1-56            250.00     0.0072     -3.22      -3.36      0          0
1790             TG-17            RW-17            250.00     0.0140     -0.60      -1.85      0          0
HAN-01           E2-01            E2-01Z           519.28     0.0140     -1.79      -2.26      0          0
HAN-02           E2-01Z           E2-01Y           646.87     0.0140     -2.26      -2.96      0          0
HAN-03           E2-01Y           E2-01X           559.48     0.0140     -2.96      -3.52      0          0
HAN-04           E2-01X           E2-01W           500.00     0.0150     -3.52      -4.02      0          0
HAN-05           E2-01W           E2-R18           500.00     0.0140     -4.02      -4.49      0          0