;; SWMM5 .inp converted from XPSWMM .xp file
;; Generated by XPSWMM Card Reader
;; Source format: XP_CARD | Original title: TEXACO SOUTH CATCH BASIN - EXTRAN MODEL

[TITLE]
;;Project Title/Notes
TEXACO SOUTH CATCH BASIN - EXTRAN MODEL

[OPTIONS]
FLOW_UNITS           CFS
INFILTRATION         HORTON
FLOW_ROUTING         DYNWAVE
LINK_OFFSETS         DEPTH
MIN_SLOPE            0.0
ALLOW_PONDING        NO
SKIP_STEADY_STATE    NO
ROUTING_STEP         00:00:10
VARIABLE_STEP        0.75
INERTIAL_DAMPING     PARTIAL
NORMAL_FLOW_LIMITED  BOTH
MAX_TRIALS           50
HEAD_TOLERANCE       0.0033

[JUNCTIONS]
;;Name           Elev       MaxDepth   InitDepth  SurDepth   Aponded
;;-------------- ---------- ---------- ---------- ---------- ----------
0                93.00      0          1.80       0          0
0                94.50      0          8.50       0          0
0                94.71      0          0          0          0
0                94.62      0          0          0          0
0                94.82      0          0          0          0
0                95.23      0          0.72       0          0
0                96.00      0          1.05       0          0
0                94.89      0          0.41       0          0
0                94.46      0          0          0          0
0                98.17      0          0.18       0          0
0                96.96      0          0          0          0
0                97.48      0          0          0          0
0                96.57      0          0          0          0
0                96.65      0          0          0          0
0                94.46      0          0          0          0
0                94.66      0          0          0          0
0                94.82      0          0          0          0
0                95.13      0          0          0          0
0                95.12      0          0          0          0
0                95.10      0          5.00       0          0
0                93.16      0          2.59       0          0
0                95.43      0          0          0          0
0                99.74      0          0          0          0
0                99.77      0          0          0          0
0                99.92      0          0          0          0
0                99.97      0          0          0          0
0                95.53      0          0          0          0
0                95.66      0          0          0          0
0                95.66      0          0          0          0
0                111.84     0          0          0          0
0                111.08     0          0          0          0
0                109.80     0          0          0          0
0                110.61     0          0          0          0
0                109.76     0          0          0          0
0                110.37     0          0          0          0
0                110.91     0          0          0          0
0                111.83     0          0          0          0
0                111.08     0          0          0          0
0                111.10     0          0          0          0
0                112.99     0          0          0          0
0                111.53     0          0          0          0
0                111.76     0          0          0          0
0                111.61     0          0          0          0
0                111.94     0          0          0          0
0                112.32     0          0          0          0
0                111.88     0          0          0          0
0                112.20     0          0          0          0
0                111.71     0          0          0          0
0                111.24     0          0          0          0
0                111.43     0          0          0          0
0                111.58     0          0          0          0
0                111.55     0          0          0          0
0                111.50     0          0          0          0
0                111.59     0          0          0          0
0                111.97     0          0          0          0
0                115.59     0          0          0          0
0                95.79      0          0          0          0
0                95.28      0          0          0          0
0                95.17      0          0          0          0
0                94.89      0          0          0          0
0                94.83      0          0          0          0
0                94.76      0          0          0          0
0                95.01      0          0          0          0
0                93.87      0          0          0          0
0                94.10      0          0          0          0
0                94.56      0          0          0          0
0                95.38      0          0          0          0
0                94.93      0          0          0          0
0                95.77      0          0          0          0
0                95.87      0          0          0          0
0                95.99      0          0          0          0
0                95.07      0          0          0          0
0                95.26      0          0          0          0
0                95.98      0          0          0          0
0                96.07      0          0          0          0
0                94.98      0          0          0          0
0                94.36      0          0          0          0
0                95.80      0          0          0          0
0                95.53      0          0          0          0
0                96.90      0          0          0          0
0                96.60      0          0          0          0
0                96.91      0          0          0          0
0                96.13      0          0          0          0
0                95.08      0          0          0          0
0                95.18      0          0          0          0
0                95.85      0          0          0          0
0                95.06      0          0          0          0
0                94.74      0          0          0          0
0                94.77      0          0          0          0
0                94.77      0          0          0          0
0                94.83      0          0          0          0
0                94.32      0          0          0          0
0                95.40      0          0          0          0
0                94.85      0          0          0          0
0                94.52      0          0          0          0
0                94.35      0          0          0          0
0                95.41      0          0          0          0
0                94.72      0          0          0          0
0                95.62      0          0          0          0
0                96.27      0          0          0          0
0                94.12      0          1.00       0          0
0                94.67      0          0          0          0
0                94.96      0          0          0          0
0                95.55      0          0          0          0
0                95.41      0          0          0          0
0                95.34      0          0          0          0
0                95.62      0          0          0          0
0                94.07      0          1.63       0          0
0                94.86      0          0          0          0
0                94.09      0          0          0          0
0                95.35      0          0          0          0
0                95.34      0          0          0          0
0                95.34      0          0          0          0
0                95.31      0          0          0          0
0                95.48      0          0          0          0
0                95.32      0          0          0          0
0                95.74      0          0          0          0
0                95.71      0          0          0          0
0                96.21      0          0          0          0
0                96.05      0          0          0          0
0                96.36      0          0          0          0
0                96.23      0          0          0          0
0                96.44      0          0          0          0
0                96.44      0          0          0          0
0                98.08      0          0          0          0
0                95.20      0          0          0          0
0                94.47      0          0          0          0
0                95.32      0          0          0          0
0                94.47      0          0          0          0
0                94.59      0          0          0          0
0                94.98      0          0          0          0
0                94.63      0          0          0          0
0                94.67      0          0          0          0
0                96.09      0          0          0          0
0                95.90      0          0          0          0
0                95.85      0          0          0          0
0                95.68      0          0          0          0
0                95.06      0          0          0          0
0                97.04      0          0          0          0
0                97.00      0          0          0          0
0                97.23      0          0          0          0
0                97.21      0          0          0          0
0                97.03      0          0          0          0
0                96.11      0          0          0          0
0                96.52      0          0          0          0
0                95.62      0          0          0          0
0                96.16      0          0          0          0
0                94.67      0          0          0          0
0                95.50      0          5.00       0          0

[CONDUITS]
;;Name           From             To               Length     Roughness  InOffset   OutOffset  InitFlow   MaxFlow
;;-------------- ---------------- ---------------- ---------- ---------- ---------- ---------- ---------- ----------
222              0                0                34.00      0.0150     86.41      84.00      0          0
223              0                0                700.00     0.0150     92.33      86.41      0          0
224              0                0                69.00      0.0150     96.97      92.33      0          0
225              0                0                42.00      0.0130     96.17      96.97      0          0
226              0                0                177.00     0.0130     96.82      96.17      0          0
227              0                0                106.00     0.0130     96.82      96.82      0          0
228              0                0                68.00      0.0150     92.25      92.50      0          0
229              0                0                261.00     0.0150     93.13      92.33      0          0
230              0                0                14.00      0.0150     94.00      93.86      0          0
311              0                0                190.00     0.0150     92.52      94.00      0          0
312              0                0                166.00     0.0150     93.27      92.50      0          0
231              0                0                44.00      0.0150     100.29     94.00      0          0
232              0                0                76.00      0.0150     106.58     100.29     0          0
233              0                0                37.00      0.0130     108.55     108.23     0          0
234              0                0                211.00     0.0150     107.26     106.58     0          0
236              0                0                163.00     0.0150     107.70     107.36     0          0
235              0                0                32.00      0.0130     108.56     108.29     0          0
237              0                0                50.00      0.0150     108.66     106.87     0          0
238              0                0                69.00      0.0150     105.93     107.91     0          0
239              0                0                105.00     0.0150     108.22     105.11     0          0
241              0                0                62.00      0.0150     108.52     108.28     0          0
260              0                0                114.00     0.0150     89.67      86.41      0          0
261              0                0                136.00     0.0150     88.25      89.67      0          0
262              0                0                56.00      0.0150     88.58      88.25      0          0
263              0                0                69.00      0.0150     88.89      88.58      0          0
264              0                0                91.00      0.0150     88.61      88.61      0          0
265              0                0                156.00     0.0150     89.46      88.61      0          0
266              0                0                32.00      0.0150     90.00      89.46      0          0
267              0                0                297.00     0.0150     90.27      90.00      0          0
268              0                0                44.00      0.0150     87.54      90.27      0          0
269              0                0                217.00     0.0150     90.01      87.54      0          0
270              0                0                222.00     0.0150     90.38      90.01      0          0
271              0                0                44.00      0.0150     90.53      90.38      0          0
272              0                0                39.00      0.0150     90.96      90.53      0          0
273              0                0                138.00     0.0150     91.87      90.96      0          0
274              0                0                113.00     0.0150     92.04      92.09      0          0
275              0                0                54.00      0.0150     92.22      92.09      0          0
276              0                0                289.00     0.0150     91.61      91.22      0          0
221              0                0                64.00      0.0150     86.00      87.20      0          0
203              0                0                72.00      0.0150     88.50      87.78      0          0
204              0                0                32.00      0.0150     89.00      88.50      0          0
205              0                0                41.00      0.0150     89.75      89.00      0          0
206              0                0                79.00      0.0150     90.24      89.00      0          0
318              0                0                228.00     0.0150     88.56      90.24      0          0
317              0                0                140.00     0.0150     89.00      88.75      0          0
316              0                0                150.00     0.0150     89.35      88.95      0          0
207              0                0                205.00     0.0150     88.50      87.50      0          0
313              0                0                89.00      0.0150     88.00      88.50      0          0
314              0                0                72.00      0.0150     91.17      88.50      0          0
315              0                0                272.00     0.0150     90.41      91.17      0          0
308              0                0                155.00     0.0150     89.35      90.24      0          0
230              0                0                163.00     0.0150     94.00      89.35      0          0
309              0                0                170.00     0.0150     91.01      90.24      0          0
307              0                0                86.00      0.0150     91.52      91.01      0          0
310              0                0                95.00      0.0150     91.46      91.52      0          0
302              0                0                233.00     0.0150     90.25      91.01      0          0
300              0                0                77.00      0.0150     90.33      91.37      0          0
298              0                0                68.00      0.0150     92.02      91.47      0          0
296              0                0                27.00      0.0150     90.55      91.78      0          0
309              0                0                18.00      0.0150     91.01      90.65      0          0
209              0                0                234.00     0.0150     88.59      88.50      0          0
211              0                0                66.00      0.0150     89.37      89.19      0          0
212              0                0                124.00     0.0150     89.96      89.52      0          0
213              0                0                84.00      0.0150     90.43      89.96      0          0
214              0                0                98.00      0.0150     90.57      90.43      0          0
215              0                0                63.00      0.0150     90.65      90.57      0          0
208              0                0                18.00      0.0150     88.65      88.50      0          0
321              0                0                28.00      0.0150     87.37      88.65      0          0
320              0                0                329.00     0.0150     92.61      87.37      0          0
322              0                0                205.00     0.0150     92.01      87.37      0          0
217              0                0                244.00     0.0150     90.86      90.23      0          0
218              0                0                40.00      0.0150     91.02      90.81      0          0
343              0                0                302.00     0.0150     92.06      91.02      0          0
340              0                0                67.00      0.0150     91.72      92.09      0          0
342              0                0                50.00      0.0150     91.67      91.97      0          0
341              0                0                15.00      0.0150     92.07      92.07      0          0
339              0                0                63.00      0.0150     92.20      91.67      0          0
210              0                0                135.00     0.0150     89.50      90.49      0          0
324              0                0                259.00     0.0150     88.95      89.50      0          0
326              0                0                246.00     0.0150     88.59      88.75      0          0
325              0                0                17.00      0.0150     89.04      89.04      0          0
327              0                0                125.00     0.0150     89.25      89.09      0          0
328              0                0                308.00     0.0150     90.22      89.25      0          0
329              0                0                54.00      0.0150     90.04      90.04      0          0
330              0                0                170.00     0.0150     90.56      90.52      0          0
331              0                0                15.00      0.0150     92.11      91.94      0          0
332              0                0                168.00     0.0150     90.51      90.54      0          0
333              0                0                19.00      0.0150     92.15      92.01      0          0
334              0                0                148.00     0.0150     90.66      90.46      0          0
335              0                0                19.00      0.0150     92.13      91.66      0          0
336              0                0                120.00     0.0150     90.24      90.61      0          0
337              0                0                27.00      0.0150     90.29      90.29      0          0
338              0                0                46.00      0.0150     90.29      90.29      0          0
355              0                0                52.00      0.0150     90.29      90.29      0          0
354              0                0                243.00     0.0150     90.26      90.29      0          0
356              0                0                75.00      0.0150     91.90      91.50      0          0
357              0                0                104.00     0.0150     94.00      93.36      0          0
358              0                0                61.00      0.0150     94.00      94.25      0          0
323              0                0                42.00      0.0150     91.38      89.50      0          0
216              0                0                193.00     0.0150     89.00      89.50      0          0
219              0                0                118.00     0.0150     91.63      90.31      0          0
220              0                0                54.00      0.0150     91.17      87.73      0          0
304              0                0                73.00      0.0130     93.07      92.62      0          0
303              0                0                66.00      0.0150     92.00      91.17      0          0
251              0                0                954.00     0.0150     99.14      89.39      0          0
250              0                0                55.00      0.0150     103.06     102.74     0          0
243              0                0                187.00     0.0150     103.50     104.10     0          0
242              0                0                46.00      0.0150     107.99     104.08     0          0
241              0                0                20.00      0.0150     107.93     108.09     0          0
244              0                0                44.00      0.0150     104.36     104.11     0          0
245              0                0                145.00     0.0150     105.98     104.88     0          0
246              0                0                35.00      0.0150     107.68     106.26     0          0
247              0                0                204.00     0.0150     106.38     106.94     0          0
248              0                0                34.00      0.0150     108.23     106.68     0          0
252              0                0                11.00      0.0150     106.88     104.01     0          0
253              0                0                62.00      0.0150     106.75     106.49     0          0
254              0                0                50.00      0.0150     107.30     106.81     0          0
255              0                0                58.00      0.0150     108.30     108.35     0          0
256              0                0                69.00      0.0150     109.17     109.17     0          0
258              0                0                499.00     0.0150     106.32     102.69     0          0
249              0                0                394.00     0.0150     110.20     107.17     0          0
353              0                0                103.00     0.0150     90.23      90.21      0          0
352              0                0                74.00      0.0150     91.18      90.51      0          0
351              0                0                56.00      0.0150     90.50      91.05      0          0
363              0                0                83.00      0.0150     90.53      90.50      0          0
350              0                0                85.00      0.0150     91.32      90.50      0          0
349              0                0                100.00     0.0150     90.79      90.87      0          0
348              0                0                54.00      0.0150     87.24      90.99      0          0
347              0                0                87.00      0.0150     90.53      87.53      0          0
345              0                0                212.00     0.0150     92.19      90.43      0          0
360              0                0                199.00     0.0150     91.32      90.64      0          0
359              0                0                7.00       0.0150     90.91      91.07      0          0
288              0                0                154.00     0.0150     91.87      91.07      0          0
289              0                0                66.00      0.0150     91.76      91.32      0          0
291              0                0                214.00     0.0150     91.66      91.87      0          0
295              0                0                64.00      0.0150     92.87      89.88      0          0
283              0                0                31.00      0.0150     91.00      91.61      0          0
282              0                0                100.00     0.0150     91.90      91.00      0          0
281              0                0                35.00      0.0150     91.18      90.88      0          0
280              0                0                60.00      0.0150     91.93      91.18      0          0
279              0                0                66.00      0.0150     90.53      91.84      0          0
290              0                0                36.00      0.0150     92.53      92.48      0          0
277              0                0                131.00     0.0150     92.28      92.42      0          0
259              0                0                213.00     0.0150     108.31     92.28      0          0
278              0                0                78.00      0.0150     91.18      92.38      0          0
284              0                0                100.00     0.0150     91.70      91.72      0          0
285              0                0                102.00     0.0150     93.00      94.54      0          0
286              0                0                69.00      0.0150     93.70      93.00      0          0
361              0                0                30.00      0.0150     94.42      91.65      0          0
513              0                0                589.00     0.0150     92.00      89.86      0          0
513              0                0                525.00     0.0150     92.00      87.96      0          0
221              ?                0                10.00      0.0150     84.00      83.90      0          0

[XSECTIONS]
;;Link           Shape        Geom1      Geom2      Geom3      Geom4      Barrels
;;-------------- ------------ ---------- ---------- ---------- ---------- ----------
222              CIRCULAR     2.00       0          0          0          1
223              CIRCULAR     2.00       0          0          0          1
224              CIRCULAR     0.67       0          0          0          1
225              CIRCULAR     0.50       0          0          0          1
226              CIRCULAR     0.50       0          0          0          1
227              CIRCULAR     0.50       0          0          0          1
228              CIRCULAR     2.00       0          0          0          1
229              CIRCULAR     2.00       0          0          0          1
230              CIRCULAR     1.00       0          0          0          1
311              CIRCULAR     1.00       0          0          0          1
312              CIRCULAR     0.83       0          0          0          1
231              CIRCULAR     1.00       0          0          0          1
232              CIRCULAR     2.00       0          0          0          1
233              CIRCULAR     0.33       0          0          0          1
234              CIRCULAR     2.00       0          0          0          1
236              CIRCULAR     2.00       0          0          0          1
235              CIRCULAR     0.83       0          0          0          1
237              CIRCULAR     2.00       0          0          0          1
238              CIRCULAR     2.00       0          0          0          1
239              CIRCULAR     2.00       0          0          0          1
241              CIRCULAR     2.00       0          0          0          1
260              CIRCULAR     2.00       0          0          0          1
261              CIRCULAR     2.00       0          0          0          1
262              CIRCULAR     2.00       0          0          0          1
263              CIRCULAR     2.00       0          0          0          1
264              CIRCULAR     2.00       0          0          0          1
265              CIRCULAR     2.00       0          0          0          1
266              CIRCULAR     2.00       0          0          0          1
267              CIRCULAR     2.00       0          0          0          1
268              CIRCULAR     2.00       0          0          0          1
269              CIRCULAR     2.00       0          0          0          1
270              CIRCULAR     2.00       0          0          0          1
271              CIRCULAR     2.00       0          0          0          1
272              CIRCULAR     2.00       0          0          0          1
273              CIRCULAR     2.00       0          0          0          1
274              CIRCULAR     1.50       0          0          0          1
275              CIRCULAR     1.50       0          0          0          1
276              CIRCULAR     1.00       0          0          0          1
221              CIRCULAR     2.50       0          0          0          1