;; SWMM5 .inp converted from XPSWMM .xp file
;; Generated by XPSWMM Card Reader
;; Source format: XP_CARD | Original title: Kitching Creek Westside Model

[TITLE]
;;Project Title/Notes
Kitching Creek Westside Model

[OPTIONS]
FLOW_UNITS           CFS
INFILTRATION         HORTON
FLOW_ROUTING         DYNWAVE
LINK_OFFSETS         DEPTH
MIN_SLOPE            0.0
ALLOW_PONDING        NO
SKIP_STEADY_STATE    NO
ROUTING_STEP         00:00:60
VARIABLE_STEP        0.75
INERTIAL_DAMPING     PARTIAL
NORMAL_FLOW_LIMITED  BOTH
MAX_TRIALS           50
HEAD_TOLERANCE       0.0033

[JUNCTIONS]
;;Name           Elev       MaxDepth   InitDepth  SurDepth   Aponded
;;-------------- ---------- ---------- ---------- ---------- ----------
205              25.00      0          0          0          0
239              19.00      0          0          0          0
238              19.00      0          0          0          0
237              21.00      0          0          0          0
236              21.00      0          0          0          0
234              21.00      0          0          0          0
233              21.00      0          0          0          0
232              21.00      0          0          0          0
231              21.00      0          0          0          0
230              21.00      0          0          0          0
229              21.00      0          0          0          0
206              25.00      0          0          0          0
226              21.00      0          0          0          0
227              21.00      0          0          0          0
223              20.00      0          0          0          0
221              20.80      0          0          0          0
222              20.00      0          0          0          0
220              19.20      0          0          0          0
218              20.00      0          0          0          0
219              20.00      0          0          0          0
228              21.00      0          0          0          0
244              21.00      0          0          0          0
253              20.00      0          0          0          0
245              20.00      0          0          0          0
247              21.00      0          0          0          0
246              21.00      0          0          0          0
405              0          0          0          0          0
400              0          0          0          0          0
404              0          0          0          0          0
401              0          0          0          0          0
403              0          0          0          0          0
402              0          0          0          0          0
235              21.00      0          0          0          0
240              19.00      0          0          0          0
250              15.50      0          0          0          0
437              20.00      0          0          0          0
309              19.00      0          0          0          0
251              15.00      0          0          0          0
252              13.00      0          0          0          0
212              16.00      0          0          0          0
213              13.00      0          0          0          0
256              0          0          0          0          0
257              13.00      0          0          0          0
258              12.00      0          0          0          0
260              14.00      0          0          0          0
259              9.60       0          0          0          0
214              20.00      0          0          0          0
215              20.00      0          0          0          0
216              8.00       0          0          0          0
210              23.00      0          0          0          0
211              19.00      0          0          0          0
209              23.00      0          0          0          0
208              22.00      0          0          0          0
207              25.00      0          0          0          0
224              25.00      0          0          0          0
225              20.00      0          0          0          0
274              25.70      0          0          0          0
275              22.00      0          0          0          0
276              20.00      0          0          0          0
277              20.00      0          0          0          0
278              20.00      0          0          0          0
254              20.00      0          0          0          0
169              20.00      0          0          0          0
170              20.00      0          0          0          0
226.1            21.10      0          0          0          0
181              18.00      0          0          0          0
183              18.00      0          0          0          0
261              24.00      0          0          0          0
262              22.00      0          0          0          0
263              22.00      0          0          0          0
264              21.00      0          0          0          0
265              21.00      0          0          0          0
266              22.00      0          0          0          0
267              21.00      0          0          0          0
268              18.00      0          0          0          0
269              22.00      0          0          0          0
270              20.00      0          0          0          0
271              22.00      0          0          0          0
272              24.10      0          0          0          0
273              24.00      0          0          0          0
20               22.00      0          0          0          0
3                22.00      0          0          0          0
5                22.00      0          0          0          0
7                22.00      0          0          0          0
9                22.00      0          0          0          0
13               24.00      0          0          0          0
17               24.00      0          0          0          0
21               24.00      0          0          0          0
23               25.00      0          0          0          0
31               24.00      0          0          0          0
35               24.00      0          0          0          0
39               24.00      0          0          0          0
43               24.00      0          0          0          0
47               24.00      0          0          0          0
279              24.00      0          0          0          0
280              24.00      0          0          0          0
281              24.00      0          0          0          0
282              23.00      0          0          0          0
283              24.00      0          0          0          0
284              24.00      0          0          0          0
285              24.00      0          0          0          0
286              24.50      0          0          0          0
287              22.00      0          0          0          0
288              25.50      0          0          0          0
289              22.00      0          0          0          0
290              20.00      0          0          0          0
291              18.00      0          0          0          0
292              18.00      0          0          0          0
293              18.00      0          0          0          0
294              18.00      0          0          0          0
295              18.00      0          0          0          0
296              18.00      0          0          0          0
297              18.00      0          0          0          0
298              17.00      0          0          0          0
299              17.00      0          0          0          0
300              18.00      0          0          0          0
301              16.00      0          0          0          0
302              16.00      0          0          0          0
303              16.00      0          0          0          0
304              16.00      0          0          0          0
305              15.00      0          0          0          0
306              13.50      0          0          0          0
406              22.00      0          0          0          0
407              21.00      0          0          0          0
408              19.00      0          0          0          0
409              20.00      0          0          0          0
410              20.00      0          0          0          0
411              20.00      0          0          0          0
412              20.00      0          0          0          0
413              20.00      0          0          0          0
414              19.00      0          0          0          0
415              20.00      0          0          0          0
416              20.00      0          0          0          0
417              20.00      0          0          0          0
418              20.00      0          0          0          0
419              23.00      0          0          0          0
420              23.00      0          0          0          0
421              23.00      0          0          0          0
422              20.00      0          0          0          0
423              20.00      0          0          0          0
424              18.00      0          0          0          0
425              18.00      0          0          0          0
426              18.00      0          0          0          0
427              18.00      0          0          0          0
428              20.00      0          0          0          0
429              20.00      0          0          0          0
430              20.00      0          0          0          0
431              20.00      0          0          0          0
432              20.00      0          0          0          0
433              20.00      0          0          0          0
434              22.00      0          0          0          0
435              20.00      0          0          0          0
436              20.00      0          0          0          0
443              24.00      0          0          0          0
438              19.00      0          0          0          0
439              20.00      0          0          0          0
440              22.00      0          0          0          0
441              20.00      0          0          0          0
442              24.00      0          0          0          0
444              22.00      0          0          0          0
445              21.00      0          0          0          0
446              20.00      0          0          0          0
447              20.00      0          0          0          0
448              20.00      0          0          0          0
454              20.00      0          0          0          0
449              18.00      0          0          0          0
450              20.00      0          0          0          0
451              20.00      0          0          0          0
452              20.00      0          0          0          0
453              20.00      0          0          0          0
455              18.00      0          0          0          0
456              18.00      0          0          0          0
457              18.00      0          0          0          0
458              20.00      0          0          0          0
459              18.00      0          0          0          0
460              17.00      0          0          0          0
461              22.00      0          0          0          0
463              17.00      0          0          0          0
464              16.00      0          0          0          0
465              21.00      0          0          0          0
462              21.00      0          0          0          0
466              20.00      0          0          0          0
467              21.20      0          0          0          0
468              20.00      0          0          0          0
469              11.00      0          0          0          0

[OUTFALLS]
;;Name           Elev       Type       Stage      Gated
;;-------------- ---------- ---------- ---------- -----
217              8.00       FREE                  NO

[CONDUITS]
;;Name           From             To               Length     Roughness  InOffset   OutOffset  InitFlow   MaxFlow
;;-------------- ---------------- ---------------- ---------- ---------- ---------- ---------- ---------- ----------
728              229              230              390.00     0.0140     16.42      16.04      0          0
729              230              231              510.00     0.0140     16.04      15.94      0          0
730              231              232              370.00     0.0140     15.94      14.56      0          0
731              232              233              910.00     0.0140     14.56      15.04      0          0
732              233              234              1140.00    0.0140     15.04      14.58      0          0
733              234              235              440.00     0.0140     14.58      14.62      0          0
734              235              236              440.00     0.0140     14.58      14.62      0          0
735              236              237              1310.00    0.0140     14.62      15.48      0          0
736              237              238              2370.00    0.0140     15.48      11.84      0          0
737              238              239              550.00     0.0140     11.84      9.34       0          0
739              240              235              150.00     0.0140     14.73      14.58      0          0
254.1            RD-BR            206              50.00      0.0120     6.90       7.25       0          0
722              223              221              50.00      0.0120     11.10      10.80      0          0
721              222              220              50.00      0.0120     11.20      11.20      0          0
717              218              219              50.00      0.0120     11.90      11.50      0          0
727              228              229              1175.00    0.0140     16.50      16.42      0          0
743              244              228              55.00      0.0120     12.60      12.30      0          0
753              245              253              60.00      0.0120     12.10      12.10      0          0
748              247              429              1000.00    0.0450     18.00      15.00      0          0
749              448              454              10700.00   0.0450     17.00      15.00      0          0
268.1            246              247              55.00      0.0140     13.50      13.10      0          0
744              244              245              1700.00    0.0600     12.60      12.10      0          0
745              246              245              870.00     0.0400     13.50      12.10      0          0
759              256              257              33.00      0.0140     0          0          0          0
760              257              258              2400.00    0.0140     11.00      10.00      0          0
761              258              259              2400.00    0.0140     10.00      5.60       0          0
762              259              213              2000.00    0.0140     5.60       0.30       0          0
763              260              258              3350.00    0.0140     11.80      10.00      0          0
758              309              251              1400.00    0.0140     14.00      7.80       0          0
751              251              252              2150.00    0.0140     7.80       4.50       0          0
752              252              212              1000.00    0.0140     4.50       2.90       0          0
712              212              213              3350.00    0.0140     2.90       0.30       0          0
707              207              208              500.00     0.0140     6.10       6.80       0          0
708              208              209              900.00     0.0140     6.80       7.30       0          0
709              209              210              900.00     0.0140     7.30       7.30       0          0
CMP-C-2          RD-138           211              0          0          0          0          0          0
711              211              169              2600.00    0.0140     8.23       5.50       0          0
872              181              183              500.00     0.0600     12.50      12.00      0          0
706              206              207              800.00     0.0140     7.25       6.10       0          0
726              227              226.1            50.00      0.0120     11.10      13.23      0          0
725              226.1            465              1200.00    0.0600     13.23      9.80       0          0
720              221              205              1400.00    0.0600     10.80      6.90       0          0
719              220              221              2200.00    0.0600     11.20      10.80      0          0
718              466              220              3000.00    0.0600     11.30      11.20      0          0
724              225              462              2400.00    0.0650     14.00      13.50      0          0
778              274              461              500.00     0.0140     14.00      14.00      0          0
779              275              276              480.00     0.0140     17.00      14.00      0          0
780              276              277              250.00     0.0140     17.00      14.00      0          0
781              277              278              500.00     0.0140     14.00      14.00      0          0
782              278              205              500.00     0.0140     14.00      6.90       0          0
738              239              211              700.00     0.0140     9.34       8.64       0          0
713              213              214              1800.00    0.0140     0.30       -3.80      0          0
714              214              215              1900.00    0.0140     -2.30      -3.80      0          0
715              215              216              1900.00    0.0140     -3.80      -12.00     0          0
716              216              217              2400.00    0.0140     -12.00     -12.00     0          0
755              254              434              2000.00    0.0140     18.00      17.00      0          0
711.2            170              463              2000.00    0.0140     7.97       7.33       0          0
873              183              459              500.00     0.0140     12.00      12.00      0          0
765              261              262              500.00     0.0140     17.00      17.00      0          0
766              262              263              500.00     0.0140     17.00      17.00      0          0
767              263              264              500.00     0.0140     17.00      18.00      0          0
768              264              265              500.00     0.0140     18.00      18.00      0          0
769              265              266              500.00     0.0140     18.00      18.00      0          0
770              266              267              500.00     0.0140     18.00      17.00      0          0
771              267              268              500.00     0.0140     17.00      17.00      0          0
772              268              269              500.00     0.0140     17.00      12.70      0          0
773              269              270              500.00     0.0140     12.70      12.60      0          0
774              270              271              500.00     0.0140     12.60      12.50      0          0
775              271              272              500.00     0.0140     12.50      12.40      0          0
776              272              273              500.00     0.0140     12.40      12.30      0          0
501              20               3                500.00     0.0140     18.00      17.99      0          0
502              3                5                500.00     0.0140     18.00      17.00      0          0
503              5                7                500.00     0.0140     17.00      18.00      0          0
504              7                9                500.00     0.0140     18.00      18.00      0          0
505              9                13               1000.00    0          18.00      18.00      0          0
507              13               17               1000.00    0          18.00      18.00      0          0
509              17               21               1000.00    0          18.00      18.00      0          0
511              21               23               500.00     0.0140     18.00      18.00      0          0
514              23               31               2000.00    0.0140     18.00      17.00      0          0
516              31               35               1000.00    0.0140     17.00      17.00      0          0
518              35               39               1000.00    0.0140     17.00      17.00      0          0
520              39               43               1000.00    0.0140     17.00      17.00      0          0
522              43               47               1000.00    0.0140     17.00      17.00      0          0
524              47               261              1000.00    0.0140     17.00      17.00      0          0
783              279              280              1000.00    0.0140     17.00      17.00      0          0
784              280              281              500.00     0.0140     17.00      17.00      0          0
785              281              282              500.00     0.0140     17.00      17.00      0          0
786              282              283              500.00     0.0140     17.00      17.00      0          0
787              283              284              500.00     0.0140     17.00      17.00      0          0
788              284              285              500.00     0.0140     17.00      18.00      0          0
789              285              286              500.00     0.0140     18.00      17.00      0          0
790              286              287              500.00     0.0140     17.00      15.00      0          0
791              287              288              500.00     0.0140     15.00      15.00      0          0
792              288              224              500.00     0.0140     15.00      14.00      0          0
777              273              274              500.00     0.0140     12.30      14.00      0          0
793              289              290              500.00     0.0140     17.00      17.00      0          0
794              290              291              500.00     0.0140     17.00      15.00      0          0
795              291              292              500.00     0.0140     15.00      15.00      0          0
796              292              293              500.00     0.0140     15.00      15.00      0          0
797              293              294              500.00     0.0140     15.00      15.00      0          0
798              294              295              500.00     0.0140     15.00      15.00      0          0
799              295              296              500.00     0.0140     15.00      15.00      0          0
800              296              297              500.00     0.0140     15.00      15.00      0          0
801              297              298              500.00     0.0140     15.00      15.00      0          0
802              298              299              500.00     0.0140     15.00      14.00      0          0
803              299              300              500.00     0.0140     14.00      15.00      0          0
804              300              301              500.00     0.0140     15.00      14.00      0          0
805              301              302              500.00     0.0140     14.00      13.50      0          0
806              302              303              500.00     0.0140     13.50      13.50      0          0
807              303              304              500.00     0.0140     13.00      12.00      0          0
808              304              305              500.00     0.0140     12.80      10.00      0          0
809              305              306              500.00     0.0140     10.00      9.00       0          0
810              306              469              400.00     0.0140     9.00       7.00       0          0
811              406              407              500.00     0.0140     20.00      18.00      0          0
812              407              408              500.00     0.0140     18.00      17.00      0          0
813              408              409              500.00     0.0140     17.00      17.00      0          0
814              409              410              500.00     0.0140     17.00      17.00      0          0
815              410              411              500.00     0.0140     17.00      17.00      0          0
816              411              412              500.00     0.0140     17.00      17.00      0          0
817              412              413              500.00     0.0140     17.00      17.00      0          0
818              413              414              500.00     0.0140     17.00      17.00      0          0
819              414              415              500.00     0.0140     17.00      17.00      0          0
820              415              416              500.00     0.0140     17.00      17.00      0          0
821              416              417              500.00     0.0140     17.00      14.00      0          0
822              417              418              500.00     0.0140     14.00      14.00      0          0
823              418              419              500.00     0.0140     14.00      17.00      0          0
824              419              420              500.00     0.0140     17.00      17.00      0          0
825              420              421              500.00     0.0140     17.00      17.00      0          0
826              421              422              500.00     0.0140     17.00      17.00      0          0
827              422              423              500.00     0.0140     17.00      17.00      0          0
828              423              424              500.00     0.0140     17.00      15.00      0          0
829              424              425              1000.00    0.0140     15.00      15.00      0          0
830              425              426              1000.00    0.0140     15.00      15.00      0          0
831              426              427              1000.00    0.0140     15.00      15.00      0          0
832              427              428              700.00     0.0140     15.00      15.00      0          0
386              428              289              500.00     0.0140     15.00      17.00      0          0
839              429              430              1000.00    0.0450     15.00      15.00      0          0
840              430              431              1000.00    0.0450     15.00      15.00      0          0
841              431              432              1000.00    0.0450     15.00      15.00      0          0
842              432              433              1000.00    0.0450     15.00      15.00      0          0
843              433              434              250.00     0.0450     15.00      17.00      0          0
844              434              435              250.00     0.0450     17.00      15.00      0          0
845              435              436              1000.00    0.0450     15.00      15.00      0          0
846              436              437              1000.00    0.0450     15.00      15.00      0          0
847              437              443              1000.00    0.0140     15.00      15.00      0          0
848              253              438              1000.00    0.0140     18.00      17.00      0          0
849              438              439              1000.00    0.0140     17.00      18.00      0          0
850              439              440              1000.00    0.0140     18.00      18.00      0          0
851              440              441              1000.00    0.0140     18.00      15.00      0          0
852              441              442              800.00     0.0140     15.00      17.00      0          0
854              442              444              400.00     0.0140     17.00      17.00      0          0
855              444              445              500.00     0.0140     17.00      17.00      0          0
856              445              446              500.00     0.0140     17.00      17.00      0          0
857              446              447              600.00     0.0140     17.00      17.00      0          0
858              447              448              600.00     0.0140     17.00      17.00      0          0
853              443              442              1000.00    0.0450     15.00      17.00      0          0
860              449              450              1000.00    0.0140     17.00      17.00      0          0
861              450              451              1000.00    0.0140     17.00      17.00      0          0
862              451              452              650.00     0.0140     17.00      17.00      0          0