;; SWMM5 .inp converted from XPSWMM .xp file
;; Generated by XPSWMM Card Reader
;; Source format: XP_CARD | Original title: Austin Street Existing Conditions Model

[TITLE]
;;Project Title/Notes
Austin Street Existing Conditions Model

[OPTIONS]
FLOW_UNITS           CFS
INFILTRATION         HORTON
FLOW_ROUTING         DYNWAVE
LINK_OFFSETS         DEPTH
MIN_SLOPE            0.0
ALLOW_PONDING        NO
SKIP_STEADY_STATE    NO
ROUTING_STEP         00:00:05
VARIABLE_STEP        0.75
INERTIAL_DAMPING     PARTIAL
NORMAL_FLOW_LIMITED  BOTH
MAX_TRIALS           50
HEAD_TOLERANCE       0.0033

[JUNCTIONS]
;;Name           Elev       MaxDepth   InitDepth  SurDepth   Aponded
;;-------------- ---------- ---------- ---------- ---------- ----------
4232             43.30      0          0          0          0
4237             44.00      0          0          0          0
3210             42.70      0          0          0          0
4117             44.00      0          0          0          0
4930             43.18      0          0          0          0
4915             43.20      0          0          0          0
4259             43.30      0          0          0          0
4227             44.15      0          0          0          0
4128             42.92      0          0          0          0
4125             44.00      0          0          0          0
5353             43.00      0          0          0          0
4927             43.18      0          0          0          0
3214             42.40      0          0          0          0
4257             41.80      0          0          0          0
4935             44.00      0          0          0          0
5351             44.12      0          0          0          0
5455             44.00      0          0          0          0
4131             44.00      0          0          0          0
4258             41.80      0          0          0          0
4885             44.30      0          0          0          0
5301             44.38      0          0          0          0
4214             43.68      0          0          0          0
5106             42.00      0          0          0          0
4242             41.80      0          0          0          0
4881             44.80      0          0          0          0
4134             44.70      0          0          0          0
4920             42.70      0          0          0          0
5529             44.00      0          0          0          0
4235             43.40      0          0          0          0
4884             44.30      0          0          0          0
5056             41.00      0          0          0          0
4899             43.00      0          0          0          0
5442             44.26      0          0          0          0
4119             44.00      0          0          0          0
4925             42.71      0          0          0          0
5299             44.38      0          0          0          0
5428             44.30      0          0          0          0
4932             42.30      0          0          0          0
5530             43.20      0          0          0          0
5523             42.60      0          0          0          0
4936             44.00      0          0          0          0
4910             43.30      0          0          0          0
5257             43.90      0          0          0          0
4917             43.20      0          0          0          0
5286             44.50      0          0          0          0
5502             43.00      0          0          0          0
5419             43.59      0          0          0          0
5462             44.39      0          0          0          0
5472             44.28      0          0          0          0
5477             43.00      0          0          0          0
5496             43.80      0          0          0          0
5460             43.00      0          0          0          0
5028             44.30      0          0          0          0
5317             46.32      0          0          0          0
5044             45.00      0          0          0          0
5510             43.80      0          0          0          0
5122             45.00      0          0          0          0
5469             44.00      0          0          0          0
5020             45.00      0          0          0          0
5465             44.00      0          0          0          0
5294             44.00      0          0          0          0
5459             43.76      0          0          0          0
4888             45.00      0          0          0          0
5468             44.00      0          0          0          0
5249             44.30      0          0          0          0
5412             42.86      0          0          0          0
5485             44.50      0          0          0          0
5263             45.24      0          0          0          0
5258             44.30      0          0          0          0
5493             44.40      0          0          0          0
4114             44.00      0          0          0          0
5248             44.30      0          0          0          0
5300             44.60      0          0          0          0
4896             44.80      0          0          0          0
5403             43.00      0          0          0          0
5408             43.00      0          0          0          0
5050             45.00      0          0          0          0
5104             44.00      0          0          0          0
5256             44.18      0          0          0          0
5019             44.30      0          0          0          0
5027             45.00      0          0          0          0
5063             45.00      0          0          0          0
5118             44.00      0          0          0          0
5504             43.20      0          0          0          0
5515             44.00      0          0          0          0
5051             42.00      0          0          0          0
5505             43.35      0          0          0          0
5053             42.00      0          0          0          0
5480             44.00      0          0          0          0
5476             42.81      0          0          0          0
5416             43.20      0          0          0          0
5024             44.30      0          0          0          0
5487             44.00      0          0          0          0
5447             43.00      0          0          0          0
5526             43.38      0          0          0          0
5171             41.25      0          0          0          0
5250             44.00      0          0          0          0
5457             44.00      0          0          0          0
5486             44.50      0          0          0          0
5417             43.20      0          0          0          0
5413             42.91      0          0          0          0
5430             44.30      0          0          0          0
5500             43.20      0          0          0          0
5519             43.40      0          0          0          0
5247             44.30      0          0          0          0
5253             44.00      0          0          0          0
5405             43.00      0          0          0          0
5506             44.10      0          0          0          0
5110             44.00      0          0          0          0
5302             44.50      0          0          0          0
5531             43.60      0          0          0          0
5111             43.20      0          0          0          0
5254             44.00      0          0          0          0
5252             44.80      0          0          0          0
5121             43.70      0          0          0          0
5041             42.00      0          0          0          0
5307             44.30      0          0          0          0
5478             44.00      0          0          0          0
5494             43.50      0          0          0          0
5016             44.30      0          0          0          0
5107             44.00      0          0          0          0
5471             44.00      0          0          0          0
5498             43.50      0          0          0          0
5499             43.60      0          0          0          0
5273             44.70      0          0          0          0
5470             44.00      0          0          0          0
5400             43.90      0          0          0          0
5109             43.70      0          0          0          0
5264             45.50      0          0          0          0
5265             44.08      0          0          0          0
5280             44.00      0          0          0          0
5495             43.40      0          0          0          0
7413             44.00      0          0          0          0
5365             44.00      0          0          0          0
5266             45.00      0          0          0          0
5415             43.00      0          0          0          0
5484             44.50      0          0          0          0
5119             43.10      0          0          0          0
7371             43.89      0          0          0          0
5349             45.00      0          0          0          0
5279             44.00      0          0          0          0
5114             43.71      0          0          0          0
5488             45.00      0          0          0          0
5512             43.50      0          0          0          0
5305             45.20      0          0          0          0
5116             43.30      0          0          0          0
5251             45.00      0          0          0          0
5271             45.00      0          0          0          0
4908             43.50      0          0          0          0
4144             42.80      0          0          0          0
5397             44.00      0          0          0          0
5490             45.00      0          0          0          0
5525             43.07      0          0          0          0
5514             43.50      0          0          0          0
5123             45.00      0          0          0          0
5295             44.50      0          0          0          0
4887             45.00      0          0          0          0
4907             43.60      0          0          0          0
5513             43.50      0          0          0          0
5281             43.46      0          0          0          0
5492             44.40      0          0          0          0
5464             44.00      0          0          0          0
5255             43.78      0          0          0          0
5345             44.30      0          0          0          0
5503             43.44      0          0          0          0
5501             43.40      0          0          0          0
5125             44.00      0          0          0          0
5396             44.00      0          0          0          0
5527             43.38      0          0          0          0
5522             43.30      0          0          0          0
3211             42.70      0          0          0          0
3212             42.70      0          0          0          0
3213             42.70      0          0          0          0
3215             42.40      0          0          0          0
3462             42.70      0          0          0          0
4111             41.70      0          0          0          0
4112             41.70      0          0          0          0
4113             41.50      0          0          0          0
4115             44.00      0          0          0          0
4116             44.00      0          0          0          0
4118             44.00      0          0          0          0
4120             44.00      0          0          0          0
4121             44.00      0          0          0          0
4126             44.00      0          0          0          0
4127             44.00      0          0          0          0
4129             44.00      0          0          0          0
4130             43.56      0          0          0          0
4132             44.92      0          0          0          0
4133             44.60      0          0          0          0
4136             44.00      0          0          0          0
4143             44.49      0          0          0          0
4145             44.00      0          0          0          0
4146             44.00      0          0          0          0
4216             43.26      0          0          0          0
4217             44.00      0          0          0          0
4224             44.00      0          0          0          0
4225             44.00      0          0          0          0
4226             44.00      0          0          0          0
4228             43.84      0          0          0          0
4229             43.28      0          0          0          0
4230             43.53      0          0          0          0
4231             43.50      0          0          0          0
4234             42.79      0          0          0          0
4236             42.20      0          0          0          0
4238             44.00      0          0          0          0
4240             44.00      0          0          0          0
4241             44.69      0          0          0          0
4243             43.60      0          0          0          0
4244             43.85      0          0          0          0
4249             44.00      0          0          0          0
4250             44.00      0          0          0          0
4251             44.00      0          0          0          0
4253             41.80      0          0          0          0
4254             41.80      0          0          0          0
4256             41.80      0          0          0          0
4265             44.50      0          0          0          0
4266             44.50      0          0          0          0
4269             44.00      0          0          0          0
4270             44.00      0          0          0          0
4271             41.23      0          0          0          0
4272             43.30      0          0          0          0
4276             43.72      0          0          0          0
4277             43.50      0          0          0          0
4278             43.30      0          0          0          0
4279             43.30      0          0          0          0
4281             43.30      0          0          0          0
4282             43.30      0          0          0          0
4283             43.30      0          0          0          0
4284             43.30      0          0          0          0
4295             42.20      0          0          0          0
4296             44.00      0          0          0          0
4297             41.80      0          0          0          0
4298             41.80      0          0          0          0
4299             41.80      0          0          0          0
4300             41.80      0          0          0          0
4301             43.30      0          0          0          0
4302             43.30      0          0          0          0
4303             43.30      0          0          0          0
4304             43.30      0          0          0          0
4306             41.80      0          0          0          0
4882             44.74      0          0          0          0
4883             45.00      0          0          0          0
4886             44.30      0          0          0          0
4893             44.41      0          0          0          0
4894             44.80      0          0          0          0
4895             44.80      0          0          0          0
4897             45.40      0          0          0          0
4898             42.40      0          0          0          0
4900             43.00      0          0          0          0
4901             43.00      0          0          0          0
4902             43.00      0          0          0          0
4903             43.00      0          0          0          0
4904             43.00      0          0          0          0
4905             43.00      0          0          0          0
4906             42.73      0          0          0          0
4909             53.50      0          0          0          0
4911             43.20      0          0          0          0
4912             43.20      0          0          0          0
4913             43.20      0          0          0          0
4914             43.20      0          0          0          0
4916             43.20      0          0          0          0
4918             43.20      0          0          0          0
4919             43.20      0          0          0          0
4921             42.70      0          0          0          0
4922             42.70      0          0          0          0
4923             42.70      0          0          0          0
4924             42.70      0          0          0          0
4926             42.38      0          0          0          0
4928             43.04      0          0          0          0
4929             43.18      0          0          0          0
4931             43.18      0          0          0          0
4933             42.30      0          0          0          0
4934             42.30      0          0          0          0
4937             44.00      0          0          0          0
4938             44.00      0          0          0          0
4939             44.00      0          0          0          0
4940             44.00      0          0          0          0
4941             42.73      0          0          0          0
4984             44.30      0          0          0          0
5017             44.30      0          0          0          0
5018             44.30      0          0          0          0
5021             44.30      0          0          0          0
5023             46.20      0          0          0          0
5025             44.30      0          0          0          0
5045             45.40      0          0          0          0
5046             45.40      0          0          0          0
5047             45.40      0          0          0          0
5048             45.50      0          0          0          0
5049             45.40      0          0          0          0
5052             42.00      0          0          0          0
5054             42.00      0          0          0          0
5055             45.00      0          0          0          0
5057             41.00      0          0          0          0
5058             41.00      0          0          0          0
5059             41.00      0          0          0          0
5064             45.00      0          0          0          0
5065             45.00      0          0          0          0
5099             44.30      0          0          0          0
5100             44.30      0          0          0          0
5101             42.00      0          0          0          0
5105             44.00      0          0          0          0
5108             44.00      0          0          0          0
5112             43.60      0          0          0          0
5113             45.00      0          0          0          0
5115             43.71      0          0          0          0
5117             43.50      0          0          0          0
5120             43.00      0          0          0          0
5124             45.00      0          0          0          0
5128             41.25      0          0          0          0
5129             41.25      0          0          0          0
5172             44.00      0          0          0          0
5173             44.00      0          0          0          0
5174             43.60      0          0          0          0
5175             43.60      0          0          0          0
5176             43.60      0          0          0          0
5177             43.00      0          0          0          0
5262             45.00      0          0          0          0
5267             45.00      0          0          0          0
5268             44.80      0          0          0          0
5269             45.00      0          0          0          0
5270             45.00      0          0          0          0
5272             45.00      0          0          0          0
5275             45.00      0          0          0          0
5283             44.00      0          0          0          0
5287             44.50      0          0          0          0
5288             44.50      0          0          0          0
5289             44.44      0          0          0          0
5290             44.50      0          0          0          0
5291             44.50      0          0          0          0
5292             44.50      0          0          0          0
5293             44.50      0          0          0          0
5296             44.50      0          0          0          0
5297             44.50      0          0          0          0
5298             44.00      0          0          0          0
5303             44.50      0          0          0          0
5304             44.50      0          0          0          0
5306             45.20      0          0          0          0
5308             44.30      0          0          0          0
5309             44.30      0          0          0          0
5310             44.30      0          0          0          0
5311             44.30      0          0          0          0
5312             44.30      0          0          0          0
5313             45.50      0          0          0          0
5314             44.69      0          0          0          0
5315             45.50      0          0          0          0
5316             45.50      0          0          0          0
5318             46.32      0          0          0          0
5319             46.32      0          0          0          0
5320             46.32      0          0          0          0
5321             46.32      0          0          0          0
5322             46.32      0          0          0          0
5323             44.30      0          0          0          0
5324             44.30      0          0          0          0
5325             44.30      0          0          0          0
5326             44.30      0          0          0          0
5327             44.30      0          0          0          0
5343             44.30      0          0          0          0
5344             44.30      0          0          0          0
5346             44.30      0          0          0          0
5347             44.30      0          0          0          0
5348             44.30      0          0          0          0
5350             45.11      0          0          0          0
5352             44.12      0          0          0          0
5354             43.00      0          0          0          0
5356             43.96      0          0          0          0
5357             44.00      0          0          0          0
5358             44.18      0          0          0          0
5359             44.00      0          0          0          0
5360             44.00      0          0          0          0
5361             44.00      0          0          0          0
5362             43.68      0          0          0          0
5363             44.98      0          0          0          0
5366             44.00      0          0          0          0
5368             43.00      0          0          0          0
5398             44.00      0          0          0          0
5399             45.00      0          0          0          0
5401             44.70      0          0          0          0
5402             44.70      0          0          0          0
5404             43.24      0          0          0          0
5406             43.00      0          0          0          0
5407             43.00      0          0          0          0
5409             43.00      0          0          0          0
5410             43.08      0          0          0          0
5411             43.08      0          0          0          0
5414             42.91      0          0          0          0
5418             43.00      0          0          0          0
5420             43.59      0          0          0          0
5421             43.59      0          0          0          0
5422             43.00      0          0          0          0
5424             43.58      0          0          0          0
5425             43.20      0          0          0          0
5426             43.58      0          0          0          0
5427             43.20      0          0          0          0
5429             44.30      0          0          0          0
5431             42.60      0          0          0          0
5432             43.00      0          0          0          0
5433             43.00      0          0          0          0
5434             43.18      0          0          0          0
5435             43.28      0          0          0          0
5436             43.28      0          0          0          0
5437             43.28      0          0          0          0
5438             44.20      0          0          0          0
5439             44.20      0          0          0          0
5440             43.80      0          0          0          0
5441             44.45      0          0          0          0
5443             45.00      0          0          0          0
5448             43.00      0          0          0          0
5450             43.28      0          0          0          0
5451             43.28      0          0          0          0
5452             43.54      0          0          0          0
5453             43.00      0          0          0          0
5454             43.00      0          0          0          0
5456             44.00      0          0          0          0
5458             43.48      0          0          0          0
5461             43.00      0          0          0          0
5463             45.00      0          0          0          0
5466             44.00      0          0          0          0
5467             44.00      0          0          0          0
5473             44.39      0          0          0          0
5474             45.00      0          0          0          0
5475             45.00      0          0          0          0
5479             44.00      0          0          0          0
5481             44.00      0          0          0          0
5482             44.00      0          0          0          0
5483             44.00      0          0          0          0
5489             45.04      0          0          0          0
5491             45.00      0          0          0          0
5497             43.00      0          0          0          0
5507             44.10      0          0          0          0
5508             44.08      0          0          0          0
5509             44.00      0          0          0          0
5511             44.00      0          0          0          0
5516             44.00      0          0          0          0
5517             45.00      0          0          0          0
5518             43.50      0          0          0          0
5520             43.20      0          0          0          0
5521             43.00      0          0          0          0
5524             42.60      0          0          0          0
5528             43.38      0          0          0          0
5551             44.00      0          0          0          0
5553             43.38      0          0          0          0
5554             43.20      0          0          0          0
7359             41.80      0          0          0          0
7360             42.40      0          0          0          0
7368             41.80      0          0          0          0
7369             44.70      0          0          0          0
7370             42.80      0          0          0          0
7387             44.30      0          0          0          0
7388             43.48      0          0          0          0
7389             43.76      0          0          0          0
7392             41.87      0          0          0          0
7395             41.00      0          0          0          0
7396             41.00      0          0          0          0
7397             41.00      0          0          0          0
7398             44.00      0          0          0          0
7403             44.00      0          0          0          0
7405             42.80      0          0          0          0
7407             43.20      0          0          0          0
7408             43.38      0          0          0          0
7409             44.00      0          0          0          0
7410             43.50      0          0          0          0
7411             43.40      0          0          0          0
7412             44.00      0          0          0          0
7414             43.58      0          0          0          0