;; SWMM5 .inp converted from XPSWMM .xp file
;; Generated by XPSWMM Card Reader
;; Source format: XP_CARD | Original title: Orme Street sewer from Merritts Avenue to Tanyard Creek CSO

[TITLE]
;;Project Title/Notes
Orme Street sewer from Merritts Avenue to Tanyard Creek CSO

[OPTIONS]
FLOW_UNITS           CFS
INFILTRATION         HORTON
FLOW_ROUTING         DYNWAVE
LINK_OFFSETS         DEPTH
MIN_SLOPE            0.0
ALLOW_PONDING        NO
SKIP_STEADY_STATE    NO
ROUTING_STEP         00:00:01
VARIABLE_STEP        0.75
INERTIAL_DAMPING     PARTIAL
NORMAL_FLOW_LIMITED  BOTH
MAX_TRIALS           50
HEAD_TOLERANCE       0.0033

[JUNCTIONS]
;;Name           Elev       MaxDepth   InitDepth  SurDepth   Aponded
;;-------------- ---------- ---------- ---------- ---------- ----------
N405             830.00     0          0          0          0
N400             830.00     0          0          0          0
N53001           842.00     0          0          0          0
N53000           842.00     0          0          0          0
N53002           842.00     0          0          0          0
N410             830.00     0          0          0          0
N53105           864.00     0          0          0          0
N53110           858.00     0          0          0          0
N53005           865.00     0          0          0          0
N53010           865.00     0          0          0          0
N53020           861.00     0          0          0          0
N53015           861.00     0          0          0          0
N53030           853.00     0          0          0          0
N53025           853.00     0          0          0          0
N53035           850.00     0          0          0          0
N53040           850.00     0          0          0          0
N53050           848.00     0          0          0          0
N53045           848.00     0          0          0          0
N53055           876.00     0          0          0          0
N53060           868.00     0          0          0          0
N53065           868.00     0          0          0          0
N53075           855.00     0          0          0          0
N53070           855.00     0          0          0          0
N53085           868.00     0          0          0          0
N53080           868.00     0          0          0          0
N53090           874.00     0          0          0          0
N53095           874.00     0          0          0          0
N53100           874.00     0          0          0          0
N53115           871.00     0          0          0          0
N53120           877.00     0          0          0          0
N53125           868.00     0          0          0          0
N53130           853.81     0          0          0          0
N53140           871.31     0          0          0          0
N53145           1000.00    0          0          0          0
N53150           1000.00    0          0          0          0
N53155           891.50     0          0          0          0
N53160           886.00     0          0          0          0
N53165           870.00     0          0          0          0
N53170           1000.00    0          0          0          0
N53175           882.43     0          0          0          0
N53180           886.34     0          0          0          0
N53185           889.00     0          0          0          0
N53190           897.76     0          0          0          0
N53195           900.90     0          0          0          0
N53205           901.70     0          0          0          0
N53206           901.70     0          0          0          0
N53210           901.19     0          0          0          0
N53215           899.30     0          0          0          0
N53220           901.61     0          0          0          0
N53225           902.00     0          0          0          0
N53230           905.30     0          0          0          0
N53235           904.06     0          0          0          0
N53240           1000.00    0          0          0          0
N53250           1000.00    0          0          0          0
N53255           914.20     0          0          0          0
N53260           1000.00    0          0          0          0
N53265           918.30     0          0          0          0
N53270           1000.00    0          0          0          0
N53275           941.50     0          0          0          0
N53280           942.76     0          0          0          0
N53285           935.00     0          0          0          0
N53290           930.00     0          0          0          0
N53295           1000.00    0          0          0          0
N53300           931.18     0          0          0          0
N52085           930.84     0          0          0          0
N52065           1000.00    0          0          0          0
N52050           915.00     0          0          0          0
N52040           1000.00    0          0          0          0
N52030           907.60     0          0          0          0
N52000           901.00     0          0          0          0
N52005           901.00     0          0          0          0
N52010           901.00     0          0          0          0
N52015           901.00     0          0          0          0
N52020           901.00     0          0          0          0
N52035           908.00     0          0          0          0
N52045           906.92     0          0          0          0
N52060           922.00     0          0          0          0
N52055           923.70     0          0          0          0
N52025           901.00     0          0          0          0
N52070           1000.00    0          0          0          0
N52075           938.20     0          0          0          0
N52080           928.29     0          0          0          0
N54000           916.31     0          0          0          0
N54005           918.00     0          0          0          0
N54010           926.67     0          0          0          0

[STORAGE]
;;Name           Elev       MaxDepth   InitDepth  Shape      Curve/Params
;;-------------- ---------- ---------- ---------- ---------- ----------
N53135           854.07     -2.11      0          FUNCTIONAL 625.00 0          0
N53200           900.00     -22.00     0          FUNCTIONAL 343.00 0          0

[CONDUITS]
;;Name           From             To               Length     Roughness  InOffset   OutOffset  InitFlow   MaxFlow
;;-------------- ---------------- ---------------- ---------- ---------- ---------- ---------- ---------- ----------
C53070           N53090           N53080           40.00      0.0130     832.22     832.04     0          0
C53065           N53080           N53070           139.00     0.0130     832.04     831.41     0          0
C53060           N53070           N53060           381.00     0.0130     831.41     829.70     0          0
C53055           N53060           N53055           705.00     0.0130     829.70     826.53     0          0
C53050           N53055           N53045           330.00     0.0130     826.53     825.06     0          0
C53040           N53045           N53035           170.00     0.0130     825.06     824.28     0          0
C53030           N53035           N53025           30.00      0.0130     824.28     824.15     0          0
C53020           N53025           N53015           200.00     0.0130     824.15     823.25     0          0
C53010           N53015           N53005           200.00     0.0130     823.25     822.35     0          0
C53000           N53005           N53002           200.00     0.0130     822.35     821.46     0          0
C415             N53002           N53001           11.00      0.0130     821.02     821.02     0          0
C410             N53001           N53000           22.00      0.0130     821.02     821.02     0          0
C405             N53000           N410             377.00     0.0130     821.02     820.40     0          0
C400             N400             N405             340.00     0.0130     819.42     815.00     0          0
C53090           N53095           N53085           40.00      0.0130     832.22     832.04     0          0
C53085           N53085           N53075           139.00     0.0130     832.04     831.41     0          0
C53080           N53075           N53065           381.00     0.0130     831.41     829.70     0          0
C53075           N53065           N53050           1035.00    0.0130     829.70     825.06     0          0
C53045           N53050           N53040           170.00     0.0130     825.06     824.28     0          0
C53035           N53040           N53030           30.00      0.0130     824.28     824.15     0          0
C53025           N53030           N53020           200.00     0.0130     824.15     823.25     0          0
C53015           N53020           N53010           200.00     0.0130     823.25     822.35     0          0
C53005           N53010           N53001           200.00     0.0130     822.35     821.46     0          0
C53100           N53100           N53105           2181.00    0.0130     832.22     822.41     0          0
C53095           N53105           N53000           125.00     0.0130     822.41     821.46     0          0
C53115           N53120           N53115           585.00     0.0130     829.60     826.97     0          0
C53110           N53115           N53110           651.00     0.0130     826.89     823.97     0          0
C53105           N53110           N53105           345.00     0.0130     823.97     822.41     0          0
C53305           N53300           N53295           426.00     0.0130     913.79     910.30     0          0
C53300           N53295           N53290           78.00      0.0130     910.30     910.07     0          0
C53295           N53290           N53285           323.00     0.0130     908.42     906.50     0          0
C53290           N53285           N53280           80.00      0.0130     906.50     906.02     0          0
C53285           N53280           N53275           45.00      0.0130     906.02     905.78     0          0
C53280           N53275           N53270           168.00     0.0130     905.78     903.86     0          0
C53275           N53270           N53265           196.00     0.0130     903.46     901.58     0          0
C53270           N53265           N53260           200.00     0.0130     901.58     899.66     0          0
C53265           N53260           N53255           331.00     0.0130     899.66     896.50     0          0
C53260           ?                ?                69.00      0.0130     896.50     896.13     0          0
C53250           N53250           N53240           155.00     0.0130     893.76     890.11     0          0
C53245           N53240           N53235           255.00     0.0130     890.11     888.42     0          0
C53240           N53235           N53230           315.00     0.0130     888.42     886.34     0          0
C53235           N53230           N53225           356.00     0.0130     886.34     883.96     0          0
C53230           N53225           N53220           50.00      0.0130     883.96     883.51     0          0
C53225           N53220           N53215           152.00     0.0130     883.29     882.55     0          0
C53220           N53215           N53210           325.00     0.0130     882.28     878.90     0          0
C53215           N53210           N53206           80.00      0.0130     878.90     877.68     0          0
C53211           N53206           N53205           220.00     0.0130     877.68     872.02     0          0
C53210           N53205           N53200           143.00     0.0130     872.02     870.59     0          0
C53205           N53200           N53195           85.00      0.0130     870.59     869.25     0          0
C53200           N53195           N53190           357.00     0.0130     869.25     864.81     0          0
C53195           N53190           N53185           252.00     0.0130     864.81     861.59     0          0
C53190           N53185           N53180           96.00      0.0130     861.59     860.75     0          0
C53185           N53180           N53175           136.00     0.0130     860.55     860.01     0          0
C53180           N53175           N53170           526.00     0.0130     860.01     857.00     0          0
C53175           N53170           N53165           508.00     0.0130     857.00     853.85     0          0
C53170           N53165           N53160           292.00     0.0130     852.22     851.63     0          0
C53165           N53160           N53155           226.00     0.0130     851.63     849.01     0          0
C53155           N53155           N53150           179.00     0.0130     848.30     847.41     0          0
C53150           N53150           N53145           140.00     0.0130     847.41     847.20     0          0
C53145           N53145           N53140           91.00      0.0130     847.20     846.06     0          0
C53140           N53140           N53135           467.00     0.0130     846.06     840.96     0          0
C53135           N53135           N53130           721.00     0.0130     840.96     837.42     0          0
C53130           N53130           N53125           537.00     0.0130     837.42     834.79     0          0
C53125           N53125           N53100           175.00     0.0130     834.79     832.22     0          0
C53120           N53100           N53120           600.00     0.0130     832.22     829.60     0          0
C52065           N52065           N52060           187.00     0.0130     905.13     904.15     0          0
C52060           N52060           N52055           176.00     0.0130     904.15     902.60     0          0
C52055           N52055           N52050           147.00     0.0130     902.60     901.42     0          0
C52050           N52050           N52045           345.00     0.0130     901.42     895.31     0          0
C52045           N52045           N52040           60.00      0.0130     895.31     894.59     0          0
C52040           N52040           N52035           227.00     0.0130     894.59     893.18     0          0
C52035           N52035           N52030           331.00     0.0130     893.18     890.94     0          0
C52030           N52030           N52025           239.00     0.0130     890.94     886.36     0          0
C52025           N52025           N52020           168.00     0.0130     886.36     885.53     0          0
C52020           N52020           N52015           122.00     0.0130     885.53     881.37     0          0
C52015           N52015           N52010           101.00     0.0130     881.09     880.70     0          0
C52010           N52010           N52005           131.00     0.0130     880.70     874.71     0          0
C52005           N52005           N52000           64.00      0.0130     874.71     871.18     0          0
C52000           N52000           N53200           45.00      0.0130     871.18     870.59     0          0
C52085           N52085           N52080           412.00     0.0130     915.44     914.97     0          0
C52080           N52080           N52075           736.00     0.0130     914.45     910.80     0          0
C52075           N52075           N52070           646.00     0.0130     910.33     906.71     0          0
C52070           N52070           N52065           42.00      0.0130     905.35     905.13     0          0
C54005           ?                ?                173.00     0.0180     902.00     896.45     0          0
C54000           N54000           N53250           171.00     0.0180     896.31     893.76     0          0
C54015           N52085           N54010           120.00     0.0180     915.44     914.45     0          0
C54010           N54010           N54005           1488.00    0.0180     914.45     902.13     0          0

[WEIRS]
;;Name           From             To               Type       CrestHt    Qcoeff     Gated    EndCon   EndCoeff   Surcharge
;;-------------- ---------------- ---------------- ---------- ---------- ---------- -------- -------- ---------- ----------
Lower            Upper            N400             TRANSVERSE 825.75     1.840      NO       0        0          YES
CSOMID           N53001           N400             TRANSVERSE 825.83     1.840      NO       0        0          YES
CSOEAST          N53002           N400             TRANSVERSE 826.11     1.840      NO       0        0          YES
HE2455           N53080           N53085           V-NOTCH    833.04     1.840      NO       0        0          YES
HE2315           N53070           N53075           V-NOTCH    832.41     1.840      NO       0        0          YES
HE1935           N53060           N53065           V-NOTCH    830.70     1.840      NO       0        0          YES
HE900            N53045           N53050           V-NOTCH    826.06     1.840      NO       0        0          YES
HE700            N53025           N53030           V-NOTCH    825.15     1.840      NO       0        0          YES
HE500            N53015           N53020           V-NOTCH    824.25     1.840      NO       0        0          YES
HE300            N53005           N53010           V-NOTCH    823.35     1.840      NO       0        0          YES

[XSECTIONS]
;;Link           Shape        Geom1      Geom2      Geom3      Geom4      Barrels
;;-------------- ------------ ---------- ---------- ---------- ---------- ----------
C53070           RECT_CLOSED  10.00      9.00       0          0          1
C53065           RECT_CLOSED  10.00      9.00       0          0          1
C53060           RECT_CLOSED  10.00      9.00       0          0          1
C53055           RECT_CLOSED  10.00      9.00       0          0          1
C53050           RECT_CLOSED  10.00      9.00       0          0          1
C53040           RECT_CLOSED  10.00      9.00       0          0          1
C53030           RECT_CLOSED  9.00       10.00      0          0          1
C53020           RECT_CLOSED  9.00       10.00      0          0          1
C53010           RECT_CLOSED  9.00       10.00      0          0          1
C53000           RECT_CLOSED  9.00       10.00      0          0          1
C415             RECT_CLOSED  2.00       4.00       0          0          1
C410             RECT_CLOSED  2.00       4.00       0          0          1
C405             CIRCULAR     4.50       0          0          0          1
C400             RECT_CLOSED  10.00      50.00      0          0          1
C53090           RECT_CLOSED  10.00      9.00       0          0          1
C53085           RECT_CLOSED  10.00      9.00       0          0          1
C53080           RECT_CLOSED  10.00      9.00       0          0          1
C53075           RECT_CLOSED  10.00      9.00       0          0          1
C53045           RECT_CLOSED  10.00      9.00       0          0          1
C53035           RECT_CLOSED  9.00       10.00      0          0          1
C53025           RECT_CLOSED  9.00       10.00      0          0          1
C53015           RECT_CLOSED  9.00       10.00      0          0          1
C53005           RECT_CLOSED  9.00       10.00      0          0          1
C53100           RECT_CLOSED  10.00      9.00       0          0          1
C53095           CIRCULAR     18.59      0          0          0          1
C53115           RECT_CLOSED  10.00      9.00       0          0          1
C53110           RECT_CLOSED  10.00      9.00       0          0          1
C53105           RECT_CLOSED  10.00      9.00       0          0          1
C53305           HORSESHOE    7.50       0          0          0          1
C53300           HORSESHOE    7.50       0          0          0          1
C53295           HORSESHOE    7.50       0          0          0          1
C53290           CIRCULAR     11.42      0          0          0          1
C53285           CIRCULAR     11.42      0          0          0          1
C53280           CIRCULAR     7.00       0          0          0          1
C53275           HORSESHOE    7.50       0          0          0          1
C53270           HORSESHOE    7.50       0          0          0          1
C53265           HORSESHOE    7.50       0          0          0          1
C53260           HORSESHOE    7.50       0          0          0          1
C53250           HORSESHOE    7.50       0          0          0          1
C53245           HORSESHOE    7.50       0          0          0          1
C53240           HORSESHOE    7.50       0          0          0          1
C53235           HORSESHOE    7.50       0          0          0          1
C53230           HORSESHOE    8.25       0          0          0          1
C53225           HORSESHOE    8.25       0          0          0          1
C53220           CIRCULAR     6.50       0          0          0          1
C53215           CIRCULAR     6.50       0          0          0          1
C53211           HORSESHOE    7.00       0          0          0          1
C53210           HORSESHOE    7.00       0          0          0          1
C53205           HORSESHOE    7.00       0          0          0          1
C53200           HORSESHOE    7.00       0          0          0          1
C53195           HORSESHOE    9.50       0          0          0          1
C53190           HORSESHOE    9.50       0          0          0          1
C53185           HORSESHOE    9.50       0          0          0          1
C53180           HORSESHOE    9.50       0          0          0          1
C53175           HORSESHOE    9.50       0          0          0          1
C53170           HORSESHOE    9.50       0          0          0          1
C53165           RECT_CLOSED  11.50      12.00      0          0          1
C53155           HORSESHOE    11.00      11.00      0          0          1
C53150           HORSESHOE    11.00      11.00      0          0          1
C53145           HORSESHOE    11.00      11.00      0          0          1
C53140           HORSESHOE    11.00      11.00      0          0          1
C53135           HORSESHOE    11.00      11.00      0          0          1
C53130           HORSESHOE    11.00      10.90      0          0          1
C53125           HORSESHOE    11.00      12.00      0          0          1
C53120           RECT_CLOSED  10.00      9.00       0          0          1
C52065           CIRCULAR     7.34       0          0          0          1
C52060           CIRCULAR     7.34       0          0          0          1
C52055           CIRCULAR     7.34       0          0          0          1
C52050           CIRCULAR     7.34       0          0          0          1
C52045           CIRCULAR     7.34       0          0          0          1
C52040           CIRCULAR     7.34       0          0          0          1
C52035           CIRCULAR     7.34       0          0          0          1
C52030           CIRCULAR     7.34       0          0          0          1
C52025           CIRCULAR     7.34       0          0          0          1
C52020           CIRCULAR     7.34       0          0          0          1
C52015           CIRCULAR     7.34       0          0          0          1
C52010           CIRCULAR     7.34       0          0          0          1
C52005           CIRCULAR     7.34       0          0          0          1
C52000           CIRCULAR     7.34       0          0          0          1
C52085           CIRCULAR     7.34       0          0          0          1
C52080           CIRCULAR     7.34       0          0          0          1
C52075           CIRCULAR     7.34       0          0          0          1
C52070           CIRCULAR     7.34       0          0          0          1
C54005           CIRCULAR     3.00       0          0          0          1
C54000           CIRCULAR     3.00       0          0          0          1
C54015           CIRCULAR     3.00       0          0          0          1
C54010           CIRCULAR     3.00       0          0          0          1
Lower            RECT_OPEN    0          7.20       0          0          
CSOMID           RECT_OPEN    0          6.00       0          0          
CSOEAST          RECT_OPEN    0          10.00      0          0          
HE2455           RECT_OPEN    0          6.00       0          0          
HE2315           RECT_OPEN    0          6.00       0          0          
HE1935           RECT_OPEN    0          6.00       0          0          
HE900            RECT_OPEN    0          6.00       0          0          
HE700            RECT_OPEN    0          6.00       0          0          
HE500            RECT_OPEN    0          6.00       0          0          
HE300            RECT_OPEN    0          6.00       0          0          

[LOSSES]
;;Link           Inlet      Outlet     Average    Flap Gate
;;-------------- ---------- ---------- ---------- ----------
C53070           0          0          0          NO
C53065           0          0          0          NO
C53060           0          0          0          NO
C53055           0          0          0          NO
C53050           0          0          0          NO
C53040           0          0          0          NO
C53030           0          0          0          NO
C53020           0          0          0          NO
C53010           0          0          0          NO
C53000           0          0          0          NO
C415             0          0          0          NO
C410             0          0          0          NO
C405             0          0          0          NO
C400             0          0          0          NO
C53090           0          0          0          NO
C53085           0          0          0          NO
C53080           0          0          0          NO
C53075           0          0          0          NO
C53045           0          0          0          NO
C53035           0          0          0          NO
C53025           0          0          0          NO
C53015           0          0          0          NO
C53005           0          0          0          NO
C53100           0          0          0          NO
C53095           0          0          0          NO
C53115           0          0          0          NO
C53110           0          0          0          NO
C53105           0          0          0          NO
C53305           0          0          0          NO
C53300           0          0          0          NO
C53295           0          0          0          NO
C53290           0          0          0          NO
C53285           0          0          0          NO
C53280           0          0          0          NO
C53275           0          0          0          NO
C53270           0          0          0          NO
C53265           0          0          0          NO
C53260           0          0          0          NO
C53250           0          0          0          NO
C53245           0          0          0          NO
C53240           0          0          0          NO
C53235           0          0          0          NO
C53230           0          0          0          NO
C53225           0          0          0          NO
C53220           0          0          0          NO
C53215           0          0          0          NO
C53211           0          0          0          NO
C53210           0          0          0          NO
C53205           0          0          0          NO
C53200           0          0          0          NO
C53195           0          0          0          NO
C53190           0          0          0          NO
C53185           0          0          0          NO
C53180           0          0          0          NO
C53175           0          0          0          NO
C53170           0          0          0          NO
C53165           0          0          0          NO
C53155           0          0          0          NO
C53150           0          0          0          NO
C53145           0          0          0          NO
C53140           0          0          0          NO
C53135           0          0          0          NO
C53130           0          0          0          NO
C53125           0          0          0          NO
C53120           0          0          0          NO
C52065           0          0          0          NO
C52060           0          0          0          NO
C52055           0          0          0          NO
C52050           0          0          0          NO
C52045           0          0          0          NO
C52040           0          0          0          NO
C52035           0          0          0          NO
C52030           0          0          0          NO
C52025           0          0          0          NO
C52020           0          0          0          NO
C52015           0          0          0          NO
C52010           0          0          0          NO
C52005           0          0          0          NO
C52000           0          0          0          NO
C52085           0          0          0          NO
C52080           0          0          0          NO
C52075           0          0          0          NO
C52070           0          0          0          NO
C54005           0          0          0          NO
C54000           0          0          0          NO
C54015           0          0          0          NO
C54010           0          0          0          NO

[COORDINATES]
;;Node           X-Coord            Y-Coord
;;-------------- ------------------ ------------------
N405             57.64              377.64            