;; SWMM5 .inp converted from XPSWMM .xp file
;; Generated by XPSWMM Card Reader
;; Source format: XP_CARD | Original title: (none)

[TITLE]
;;Project Title/Notes
Converted from XPSWMM .xp file

[OPTIONS]
FLOW_UNITS           CFS
INFILTRATION         HORTON
FLOW_ROUTING         DYNWAVE
LINK_OFFSETS         DEPTH
MIN_SLOPE            0.0
ALLOW_PONDING        NO
SKIP_STEADY_STATE    NO
ROUTING_STEP         00:00:30
VARIABLE_STEP        0.75
INERTIAL_DAMPING     PARTIAL
NORMAL_FLOW_LIMITED  BOTH
MAX_TRIALS           100
HEAD_TOLERANCE       0.0033

[JUNCTIONS]
;;Name           Elev       MaxDepth   InitDepth  SurDepth   Aponded
;;-------------- ---------- ---------- ---------- ---------- ----------
30               961.07     0          0          0          0
29               967.51     0          0          0          0
28               967.72     0          0          0          0
27               965.33     0          0          0          0
26               963.52     0          0          0          0
24               964.57     0          0          0          0
23               970.78     0          0          0          0
22               973.76     0          0          0          0
21               973.89     0          0          0          0
20               969.75     0          0          0          0
19               966.30     0          0          0          0
18               965.20     0          0          0          0
17               963.88     0          0          0          0
16               964.97     0          0          0          0
15               962.91     0          0          0          0
14               962.07     0          0          0          0
13               964.86     0          0          0          0
12               969.04     0          0          0          0
11               966.89     0          0          0          0
10               967.11     0          0          0          0
9                969.03     0          0          0          0
8                970.09     0          0          0          0
7                972.65     0          0          0          0
6                971.15     0          0          0          0
5                965.00     0          0          0          0
4                961.00     0          0          0          0
3                958.75     0          0          0          0
2                960.45     0          0          0          0
1                955.50     0          0          0          0

[CONDUITS]
;;Name           From             To               Length     Roughness  InOffset   OutOffset  InitFlow   MaxFlow
;;-------------- ---------------- ---------------- ---------- ---------- ---------- ---------- ---------- ----------
A                30               29               265.00     0.0130     950.46     950.35     0          0
B                29               28               243.00     0.0130     950.38     949.91     0          0
C                28               27               166.39     0.0130     949.75     949.60     0          0
E                26               24               229.63     0.0130     949.46     948.41     0          0
G                23               22               129.05     0.0130     948.58     947.75     0          0
J                20               19               140.26     0.0130     947.99     947.91     0          0
K                19               18               281.44     0.0130     947.64     947.56     0          0
L                18               17               420.00     0.0130     947.58     947.22     0          0
M                17               16               400.00     0.0130     947.28     946.91     0          0
N                16               15               404.14     0.0130     946.91     946.55     0          0
O                15               14               118.59     0.0130     946.62     946.47     0          0
P                14               13               400.00     0.0130     946.64     946.36     0          0
R                12               11               150.92     0.0130     946.52     945.99     0          0
S                11               10               266.32     0.0130     946.00     944.94     0          0
T                10               9                442.61     0.0130     944.83     944.48     0          0
U                9                8                180.67     0.0130     944.47     944.35     0          0
V                8                7                446.15     0.0130     944.35     942.39     0          0
W                7                6                135.74     0.0130     942.39     941.53     0          0
X                6                5                404.87     0.0130     941.53     940.96     0          0
Y                5                4                283.28     0.0130     938.96     938.57     0          0
Z                4                3                263.97     0.0130     936.57     936.20     0          0
AA               3                2                160.66     0.0130     934.20     933.97     0          0
AB               2                1                263.36     0.0130     931.97     931.60     0          0
D                26               27               301.45     0.0130     949.52     949.47     0          0
F                23               24               363.31     0.0130     948.58     948.43     0          0
I                20               21               187.12     0.0130     948.42     948.22     0          0
H                21               22               46.23      0.0130     947.94     947.74     0          0
Q                12               13               351.45     0.0130     946.64     946.38     0          0

[XSECTIONS]
;;Link           Shape        Geom1      Geom2      Geom3      Geom4      Barrels
;;-------------- ------------ ---------- ---------- ---------- ---------- ----------
A                CIRCULAR     3.00       0          0          0          1
B                CIRCULAR     3.00       0          0          0          1
C                CIRCULAR     3.00       0          0          0          1
E                CIRCULAR     3.00       0          0          0          1
G                CIRCULAR     3.00       0          0          0          1
J                CIRCULAR     3.50       0          0          0          1
K                CIRCULAR     3.50       0          0          0          1
L                CIRCULAR     3.50       0          0          0          1
M                CIRCULAR     3.50       0          0          0          1
N                CIRCULAR     3.50       0          0          0          1
O                CIRCULAR     3.50       0          0          0          1
P                CIRCULAR     3.50       0          0          0          1
R                CIRCULAR     3.50       0          0          0          1
S                CIRCULAR     3.50       0          0          0          1
T                CIRCULAR     3.50       0          0          0          1
U                CIRCULAR     3.50       0          0          0          1
V                CIRCULAR     3.50       0          0          0          1
W                CIRCULAR     3.50       0          0          0          1
X                CIRCULAR     3.50       0          0          0          1
Y                CIRCULAR     3.50       0          0          0          1
Z                CIRCULAR     3.50       0          0          0          1
AA               CIRCULAR     4.00       0          0          0          1
AB               CIRCULAR     4.00       0          0          0          1
D                CIRCULAR     3.00       0          0          0          1
F                CIRCULAR     3.00       0          0          0          1
I                CIRCULAR     3.00       0          0          0          1
H                CIRCULAR     3.00       0          0          0          1
Q                CIRCULAR     3.50       0          0          0          1

[LOSSES]
;;Link           Inlet      Outlet     Average    Flap Gate
;;-------------- ---------- ---------- ---------- ----------
A                0          0          0          NO
B                0          0          0          NO
C                0          0          0          NO
E                0          0          0          NO
G                0          0          0          NO
J                0          0          0          NO
K                0          0          0          NO
L                0          0          0          NO
M                0          0          0          NO
N                0          0          0          NO
O                0          0          0          NO
P                0          0          0          NO
R                0          0          0          NO
S                0          0          0          NO
T                0          0          0          NO
U                0          0          0          NO
V                0          0          0          NO
W                0          0          0          NO
X                0          0          0          NO
Y                0          0          0          NO
Z                0          0          0          NO
AA               0          0          0          NO
AB               0          0          0          NO
D                0          0          0          NO
F                0          0          0          NO
I                0          0          0          NO
H                0          0          0          NO
Q                0          0          0          NO

[COORDINATES]
;;Node           X-Coord            Y-Coord
;;-------------- ------------------ ------------------
30               34.59              12.09             
29               34.24              28.37             
28               35.63              43.13             
27               46.60              55.07             
26               46.60              69.69             
24               46.25              84.06             
23               46.56              97.47             
22               46.56              107.19            
21               57.81              107.50            
20               70.00              106.84            
19               79.69              107.19            
18               79.69              119.03            
17               80.03              132.19            
16               79.69              147.19            
15               79.69              163.44            
14               79.69              179.69            
13               79.69              195.94            
12               79.38              212.19            
11               92.19              212.19            
10               104.38             212.19            
9                116.88             212.19            
8                130.00             212.19            
7                144.06             212.19            
6                155.63             212.19            
5                168.13             223.44            
4                177.81             233.75            
3                190.35             248.09            
2                206.91             248.09            
1                224.38             248.44            

[MAP]
DIMENSIONS 34.24 12.09 224.38 248.44
Units      None

[REPORT]
INPUT            YES
SUBCATCHMENTS    ALL
NODES            ALL
LINKS            ALL



