;; SWMM5 .inp converted from XPSWMM .xp file
;; Generated by XPSWMM Card Reader
;; Source format: XP_CARD | Original title: Run # 1B - EMC Engineering - Last Update: 9/3/97         JMH

[TITLE]
;;Project Title/Notes
Run # 1B - EMC Engineering - Last Update: 9/3/97         JMH

[OPTIONS]
FLOW_UNITS           CFS
INFILTRATION         HORTON
FLOW_ROUTING         DYNWAVE
LINK_OFFSETS         DEPTH
MIN_SLOPE            0.0
ALLOW_PONDING        NO
SKIP_STEADY_STATE    NO
ROUTING_STEP         00:00:30
VARIABLE_STEP        0.75
INERTIAL_DAMPING     PARTIAL
NORMAL_FLOW_LIMITED  BOTH
MAX_TRIALS           50

[JUNCTIONS]
;;Name           Elev       MaxDepth   InitDepth  SurDepth   Aponded
;;-------------- ---------- ---------- ---------- ---------- ----------
250              16.00      0          1.00       0          0
SB               12.00      0          1.00       0          0
SB               12.00      0          1.00       0          0
SB               12.00      0          1.00       0          0
SB               12.00      0          1.00       0          0
218              12.00      0          1.00       0          0
215              12.00      0          1.00       0          0
SB               12.00      0          1.00       0          0
208              12.00      0          1.00       0          0
202              12.00      0          1.00       0          0
192              12.00      0          1.00       0          0
187              12.00      0          1.00       0          0
182              12.00      0          1.00       0          0
176              12.00      0          2.00       0          0
174              12.00      0          2.00       0          0
170              12.00      0          2.00       0          0
161              12.00      0          2.00       0          0
158              12.00      0          2.00       0          0
156              12.00      0          2.00       0          0
152              12.00      0          2.00       0          0
148              12.00      0          2.00       0          0
147              11.00      0          2.00       0          0
133.5            11.65      0          2.00       0          0
78A              12.00      0          4.50       0          0
43               9.00       0          5.30       0          0
48A              12.00      0          5.10       0          0
33               9.00       0          5.40       0          0
18               11.00      0          5.50       0          0
48B              12.00      0          5.20       0          0
63               15.00      0          5.00       0          0
78B              12.00      0          4.60       0          0
13               15.00      0          6.00       0          0
OF1              13.22      0          0          0          0
OF2              10.00      0          0          0          0
OF3              15.19      0          0          0          0
OF4              11.91      0          0          0          0
OF5              14.21      0          0          0          0
OF6              14.21      0          0          0          0
OF7              10.00      0          0          0          0
128              15.00      0          3.00       0          0
111.5            15.00      0          3.00       0          0
101.5            15.00      0          3.00       0          0
91.5             10.00      0          4.00       0          0
6+85             30.00      0          8.00       0          0
121              15.00      0          3.00       0          0
outfall          15.00      0          10.00      0          0
162              20.00      0          8.00       0          0
164              12.10      0          8.50       0          0
166              12.10      0          7.50       0          0
WetW             30.00      0          14.00      0          0
478              12.00      0          7.50       0          0
484              30.00      0          0          0          0
mh177            33.49      0          0          0          0
mh76             23.72      0          0          0          0
mh27             22.20      0          0          0          0
mh79             20.64      0          0          0          0
mh131            18.65      0          0          0          0
mh91             16.35      0          0          0          0
mh17             16.50      0          0          0          0
mh66             18.58      0          0          0          0
mh69             20.32      0          0          0          0
mh70             22.45      0          0          0          0
mh21             20.55      0          0          0          0
mh19a            19.42      0          0          0          0
mh15             16.86      0          0          0          0
mh13             16.55      0          0          0          0
mh11             17.64      0          0          0          0
mh8              17.86      0          0          0          0
mh90             17.00      0          0          0          0
mh50             13.18      0          0          0          0
mh48             14.67      0          0          0          0
mh45             15.97      0          0          0          0
mh6              22.51      0          0          0          0
mh5              21.27      0          0          0          0
mh4              20.12      0          0          0          0
mh120            16.24      0          0          0          0
mh1              16.52      0          0          0          0
mh118            20.01      0          0          0          0
mh113            20.09      0          0          0          0
mh101            19.54      0          0          0          0
mh122            19.57      0          0          0          0
mh142            19.35      0          0          0          0
mh185            21.73      0          0          0          0
mh99             22.02      0          0          0          0
mh95             20.08      0          0          0          0
mh10             18.78      0          0          0          0
mh169            19.08      0          0          0          0
33+43            21.79      0          0          0          0
27+02            20.50      0          0          0          0
20+78            20.50      0          0          0          0
13+48            18.50      0          0          0          0
8+85             17.50      0          0          0          0
6+55             17.00      0          0          0          0
0+20             17.00      0          0          0          0
25+02            17.27      0          0          0          0
12+55            17.00      0          0          0          0
7+74             17.00      0          0          0          0
62+37            17.80      0          0          0          0
55+22            20.11      0          0          0          0
43+87            17.00      0          0          0          0
37+57            18.00      0          0          0          0
33+12            17.00      0          0          0          0
20+16            19.00      0          0          0          0
30+54            16.35      0          0          0          0
39+98            23.00      0          0          0          0
88+96            22.00      0          0          0          0
81+91            22.00      0          0          0          0
75+33            19.00      0          0          0          0
68+85            18.00      0          0          0          0
16+27            25.00      0          0          0          0
15+57            18.00      0          0          0          0
73               19.00      0          0          0          0
75               22.00      0          0          0          0
76               21.00      0          0          0          0
79               19.00      0          0          0          0
1+78             34.00      0          0          0          0
47+31            23.53      0          0          0          0
46+67            17.50      0          0          0          0
64+48            18.98      0          0          0          0
61+40            18.50      0          0          0          0
50+80            14.94      0          0          0          0
44+32            14.95      0          0          0          0
37+92            16.96      0          0          0          0
30+56            22.95      0          0          0          0
24+24            26.50      0          0          0          0
20+04            22.90      0          0          0          0
18+60            21.90      0          0          0          0
14+40            21.90      0          0          0          0
9+96             20.90      0          0          0          0
5+84             16.90      0          0          0          0
0+52             12.00      0          0          0          0
63+88            19.26      0          0          0          0
57+28            20.93      0          0          0          0
44+48            22.00      0          0          0          0
26+12            21.10      0          0          0          0
24+00            21.10      0          0          0          0
18+80            22.90      0          0          0          0
14+00            23.93      0          0          0          0
37+36            23.52      0          0          0          0
49+44            19.93      0          0          0          0
42+64            22.20      0          0          0          0
32+04            22.93      0          0          0          0
29+04            22.93      0          0          0          0
21+92            21.93      0          0          0          0
18+32            21.93      0          0          0          0
6+52             20.10      0          0          0          0
1+20             14.93      0          0          0          0
40+21            23.15      0          0          0          0
31+46            22.41      0          0          0          0
29+14            21.93      0          0          0          0
17+82            7.48       0          0          0          0
8+04             6.17       0          0          0          0
2+54             10.45      0          0          0          0
24+16            18.93      0          0          0          0
SB213            11.93      0          0          0          0
SB               18.00      0          0          0          0
SB               12.93      0          0          0          0
SB               16.93      0          0          0          0
SB               12.93      0          0          0          0
SB               13.62      0          0          0          0
SB               16.93      0          0          0          0
SB               16.93      0          0          0          0
SB               13.93      0          0          0          0
SB               15.93      0          0          0          0
SB               10.93      0          0          0          0
SB               20.93      0          0          0          0
SB               16.93      0          0          0          0
SB               15.93      0          0          0          0
1                25.00      0          0          0          0
2                25.00      0          0          0          0
4A               25.00      0          0          0          0
6A               25.00      0          0          0          0
8A               25.00      0          0          0          0
10A              25.00      0          0          0          0
12A              23.00      0          0          0          0
14               22.00      0          0          0          0
16A              24.00      0          0          0          0
18D              21.50      0          0          0          0
20A              20.00      0          0          0          0
22               20.00      0          0          0          0
24A              20.50      0          0          0          0
26               23.00      0          0          0          0
28A              21.00      0          0          0          0
30A              25.00      0          0          0          0
32A              22.00      0          0          0          0
34A              23.00      0          0          0          0
36A              23.00      0          0          0          0
38A              20.00      0          0          0          0
40A              20.00      0          0          0          0
42A              18.00      0          0          0          0
44A              20.00      0          0          0          0
46               25.00      0          0          0          0
48               23.00      0          0          0          0
52A              23.00      0          0          0          0
56A              16.40      0          0          0          0
58A              16.00      0          0          0          0
60A              16.20      0          0          0          0
62               16.00      0          0          0          0
64               14.90      0          0          0          0
66A              11.33      0          0          0          0
68               11.13      0          0          0          0
70A              11.13      0          0          0          0
74A              20.00      0          0          0          0
912              23.00      0          0          0          0
915              23.00      0          0          0          0
916              23.00      0          0          0          0

[OUTFALLS]
;;Name           Elev       Type       Stage      Gated
;;-------------- ---------- ---------- ---------- -----
999              15.00      FREE                  NO

[STORAGE]
;;Name           Elev       MaxDepth   InitDepth  Shape      Curve/Params
;;-------------- ---------- ---------- ---------- ---------- ----------
57+36            17.96      -0.66      0          FUNCTIONAL 0 0          0
79+44            30.46      -0.10      0          FUNCTIONAL 0 0          0
70+84            15.86      -0.36      0          FUNCTIONAL 0 0          0
50+88            17.85      -5.87      0          FUNCTIONAL 0 0          0
92+40            29.66      -4.06      0          FUNCTIONAL 0 0          0
78+68            22.40      -4.47      0          FUNCTIONAL 0 0          0
71+72            20.70      -3.20      0          FUNCTIONAL 0 0          0
70+28            19.32      -2.92      0          FUNCTIONAL 0 0          0
62+08            19.78      -4.28      0          FUNCTIONAL 0 0          0
55+64            19.43      -4.43      0          FUNCTIONAL 0 0          0
43+44            22.40      -12.40     0          FUNCTIONAL 0 0          0
47+76            25.93      -10.43     0          FUNCTIONAL 0 0          0
42+61            23.57      -8.25      0          FUNCTIONAL 0 0          0
34+72            20.53      -5.63      0          FUNCTIONAL 0 0          0

[CONDUITS]
;;Name           From             To               Length     Roughness  InOffset   OutOffset  InitFlow   MaxFlow
;;-------------- ---------------- ---------------- ---------- ---------- ---------- ---------- ---------- ----------
1C               250              SB               700.00     0.0200     0          0          0          0
2C               SB               SB               400.00     0.0200     0          0          0          0
3C               SB               SB               700.00     0.0200     0          -0.30      0          0
4C               SB               SB               500.00     0.0200     -0.30      -0.30      0          0
5C               SB               218              1100.00    0.0200     -0.30      -0.50      0          0
6C               218              215              400.00     0.0200     -0.50      -0.80      0          0
7C               215              SB               600.00     0.0200     -0.80      -0.80      0          0
8C               SB               208              400.00     0.0170     -0.80      -0.82      0          0
9C               208              202              600.00     0.0200     -0.80      -1.00      0          0
10C              202              192              1000.00    0.0200     -1.00      -1.00      0          0
11C              192              187              500.00     0.0200     -1.00      -1.10      0          0
12C              187              182              500.00     0.0200     -1.10      -1.20      0          0
13C              182              176              600.00     0.0200     -1.20      -1.80      0          0
14C              176              174              400.00     0.0200     -1.80      -1.80      0          0
15C              174              170              400.00     0.0200     -1.80      -1.80      0          0
16C              170              161              850.00     0.0200     -1.80      -1.80      0          0
17C              161              158              400.00     0.0200     -1.80      -1.90      0          0
18C              158              156              400.00     0.0200     -1.90      -1.95      0          0
101C             156              152              400.00     0.0200     -1.95      -2.00      0          0
102C             152              148              400.00     0.0200     -2.00      -2.03      0          0
103C             148              147              400.00     0.0120     -2.03      -2.06      0          0
116C2            48B              43               500.00     0          -4.20      -4.30      0          0
83               43               33               1000.00    0          -4.30      -4.40      0          0
SM1              Overflow2        48B              50.00      0.0200     -4.10      -4.20      0          0
114C             78B              63               1500.00    0          -3.57      -4.00      0          0
90               18               13               500.00     0          -4.50      -5.01      0          0
121C             63               48A              1500.00    0          -4.00      -4.10      0          0
122              33               18               1500.00    0          -4.40      -4.50      0          0
OFC1             OF1              OF2              161.00     0.0140     7.75       4.53       0          0
OFC2             OF2              OF3              100.00     0.0140     4.53       4.49       0          0
OFC3             OF3              OF4              50.00      0.0140     4.49       -1.20      0          0
OFC4             OF4              OF5              515.00     0.0140     -1.20      -1.21      0          0
OFC5             OF5              OF6              45.00      0.0140     -1.21      -2.00      0          0
OFC6             OF6              OF7              260.00     0.0200     -2.00      -2.00      0          0
OFC7             OF7              133.5            1275.00    0.0200     -2.00      -2.00      0          0
110              133.5            128              500.00     0          -2.00      -2.16      0          0
116              128              121              700.00     0          -2.16      -2.20      0          0
117              121              111.5            950.00     0          -2.20      -2.30      0          0
118              111.5            101.5            1000.00    0          -2.30      -2.40      0          0
119              101.5            91.5             1000.00    0          -2.40      -3.00      0          0
120              91.5             78A              1250.00    0          -3.00      -3.55      0          0
Creek            999              outfall          3000.00    0.0250     -3.00      -4.00      0          0
163              6+85             162              100.00     0.0100     -2.49      -2.50      0          0
Canal            166              164              670.00     0.0150     -2.50      -2.50      0          0
460              13               6+85             400.00     0.0140     -5.01      -6.55      0          0
479              478              166              80.00      0.0100     -1.50      -2.50      0          0
483              6+85             WetW             100.00     0.0100     -2.50      -14.00     0          0
485              484              166              80.00      0.0120     13.00      -2.50      0          0
722.1            (2)52"11         mh15             650.00     0.0140     7.74       6.96       0          0
723.1            (2)52"10         mh13             650.00     0.0140     6.96       6.35       0          0
724.1            (2)52"#9         mh11             500.00     0.0140     6.35       5.74       0          0
725.1            (2)52"#8         mh10             400.00     0.0140     5.74       5.68       0          0
36               mh50             mh48             500.00     0.0140     7.98       7.42       0          0
39A              mh45             mh15             250.00     0.0140     7.71       6.96       0          0
728.1            (2)52"#6         mh6              600.00     0.0100     5.36       4.21       0          0
729.1            (2)52"#5         mh5              250.00     0.0100     4.21       4.17       0          0
730.1            (2)52"#4         mh4              800.00     0.0100     4.17       3.52       0          0
731.1            (2)52"#3         mh120            800.00     0.0100     3.52       2.54       0          0
732.1            (2)54"#2         mh1              600.00     0.0100     2.54       2.22       0          0
733.1            link61           SB               500.00     0.0090     2.22       1.86       0          0
54               mh118            mh113            500.00     0.0140     15.41      11.69      0          0
63A              mh185            mh6              350.00     0.0140     17.83      16.11      0          0
18to17pp         st19to17         mh17             600.00     0.0140     8.77       7.74       0          0
mh131to91        st131to91        mh91             650.00     0.0140     10.15      9.35       0          0
mh79mh131        st79to131        mh131            700.00     0.0140     12.44      10.15      0          0
mh28mh79         st27st79         mh79             650.00     0.0140     14.20      12.44      0          0
mh76mh27         st76st27         mh27             650.00     0.0140     15.67      14.20      0          0
mh177mh76        st177st76        mh76             750.00     0.0140     25.19      15.67      0          0
mh48mh45         st48st45         mh45             350.00     0.0140     7.42       7.71       0          0
mh95mh99         st95to99         mh99             600.00     0.0140     14.08      15.67      0          0
mh139mh6         st139st6         mh6              250.00     0.0140     15.67      16.11      0          0
mh142mh120       st142st120       mh120            1100.00    0.0140     13.50      2.54       0          0
mh122h120        st122s120        mh120            350.00     0.0100     9.77       2.54       0          0
mh101h122        st101s122        mh122            450.00     0.0140     11.14      9.77       0          0
mh113m101        st113s101        mh101            200.00     0.0140     11.69      11.14      0          0
mh90mh17         st90st17         54n10            300.00     0.0140     8.51       7.74       0          0
mh21mh19a        st21st19a        mh19a            800.00     0.0140     9.75       8.77       0          0
mh70mh21         st70st21         mh21             1300.00    0.0140     11.30      9.75       0          0
mh69mh70         st69st70         mh70             250.00     0.0140     11.62      11.30      0          0
mh66mh69         st66st69         mh69             350.00     0.0140     12.08      11.62      0          0
754.1            (2)52"#7         mh8              400.00     0.0100     5.68       5.36       0          0
132              mh169            mh10             750.00     0.0140     6.08       5.68       0          0
133              mh50             mh169            800.00     0.0140     7.98       6.08       0          0
st90to45         rl90to45         mh45             650.00     0.0140     12.71      13.97      0          0
mh90to91         st90to91         mh90             290.00     0.0140     9.35       8.51       0          0
226.1            link26           27+02            641.00     0.0140     11.00      10.50      0          0
28               27+02            20+78            624.00     0.0140     8.81       8.31       0          0
793.1            4n1              13+48            730.00     0.0140     8.31       7.80       0          0
794.1            4n2              8+85             463.00     0.0140     7.73       7.23       0          0
795.1            5n1              6+55             230.00     0.0140     7.23       7.02       0          0
796.1            5n2              0+20             33.00      0.0140     7.02       6.65       0          0
797.1            5n3              30+54            20.00      0.0140     6.65       6.58       0          0
798.1            42"#7            20+16            486.00     0.0140     6.07       4.71       0          0
799.1            42"#3            7+74             481.00     0.0140     2.53       1.18       0          0
800.1            42"#2            1+78             595.80     0.0140     1.18       -0.49      0          0
47B              62+37            55+22            715.00     0.0140     8.93       8.40       0          0
49B              55+22            46+67            855.00     0.0140     8.40       7.85       0          0
251.1            link51           42"10            630.00     0.0140     7.59       7.07       0          0
804.1            42"#9            33+12            445.00     0.0140     7.07       6.76       0          0
254.1            42"rcp#8         30+54            258.00     0.0140     6.76       6.58       0          0
806.1            42"#6            16+27            389.00     0.0140     4.71       3.62       0          0
807.1            42"#8            25+02            552.00     0.0140     6.58       6.07       0          0
60               39+98            33+43            655.00     0.0140     10.47      9.77       0          0
263.1            link63           81+91            704.00     0.0140     10.82      10.33      0          0
65               81+91            75+33            658.00     0.0140     10.33      9.87       0          0
267.1            link67           68+85            648.00     0.0140     9.87       9.40       0          0
268.1            link68           62+37            648.00     0.0140     9.40       8.93       0          0
813.1            42"#5            15+57            71.00      0.0140     3.62       3.42       0          0
814.1            42"#4            12+55            302.00     0.0140     3.42       2.53       0          0
74               73               15+57            240.00     0.0140     4.02       3.42       0          0
277.1            link77           76               742.00     0.0140     7.27       5.41       0          0
78               76               16+27            717.00     0.0140     5.41       3.62       0          0
280.1            link80           46+67            1789.00    0.0140     11.40      7.80       0          0
819.1            42"#1            202              179.00     0.0140     -0.49      -1.00      0          0
284.1            link84           39+98            733.00     0.0140     10.83      10.47      0          0
821.1            42"12            43+87            280.00     0.0140     7.75       7.59       0          0
287.1            6+55             37+57            150.00     0.0140     15.07      14.30      0          0
203.1A           Street1A         61+40            308.00     0.0140     13.82      13.05      0          0
205.1            Street2          57+36            404.00     0.0140     13.05      11.22      0          0
840.1            60n5             50+80            656.00     0.0140     11.22      9.65       0          0
841.1            4no1             44+32            648.00     0.0140     9.65       8.04       0          0
842.1            72"10            37+92            640.00     0.0140     8.04       7.40       0          0
843.1            72"9             30+56            736.00     0.0140     7.40       6.95       0          0
844.1            72"8             24+24            632.00     0.0140     6.95       5.98       0          0
845.1            72"7             20+04            420.00     0.0140     5.98       5.65       0          0
846.1            72"6             18+60            144.00     0.0140     5.65       4.95       0          0
847.1            72"5             14+40            420.00     0.0140     4.95       4.45       0          0
848.1            72"4             9+96             444.00     0.0140     4.45       4.25       0          0
849.1            72"3             5+84             412.00     0.0140     4.25       3.90       0          0
850.1            72"2             0+52             532.00     0.0140     3.90       3.45       0          0
851.1            71"1             202              52.00      0.0140     3.45       -1.35      0          0
203.1            Street1          70+84            860.00     0.0140     22.54      9.01       0          0
872.1            6n5              63+88            696.00     0.0140     9.01       7.16       0          0
873.1            60"9             57+28            660.00     0.0140     7.16       6.55       0          0
874.1            60"8             50+88            640.00     0.0140     6.55       5.95       0          0