;; SWMM5 .inp converted from XPSWMM .xp file
;; Generated by XPSWMM Card Reader
;; Source format: XP_CARD | Original title: DERM C-8 100 YEAR STORM 4/24/96 117302.A5.F0 RUN_E10

[TITLE]
;;Project Title/Notes
DERM C-8 100 YEAR STORM 4/24/96 117302.A5.F0 RUN_E10

[OPTIONS]
FLOW_UNITS           CFS
INFILTRATION         HORTON
FLOW_ROUTING         DYNWAVE
LINK_OFFSETS         DEPTH
MIN_SLOPE            0.0
ALLOW_PONDING        NO
SKIP_STEADY_STATE    NO
ROUTING_STEP         00:00:60
VARIABLE_STEP        0.75
INERTIAL_DAMPING     PARTIAL
NORMAL_FLOW_LIMITED  BOTH
MAX_TRIALS           50
HEAD_TOLERANCE       .0001

[JUNCTIONS]
;;Name           Elev       MaxDepth   InitDepth  SurDepth   Aponded
;;-------------- ---------- ---------- ---------- ---------- ----------
CN-LSCOTT        12.00      0          0          0          0
CN-C833-N        12.00      0          0          0          0
CN-C826-Wb       12.00      0          0          0          0
CN-C831-W        12.00      0          0          0          0
CN-C8-005        12.00      0          0          0          0
CN-C8-010a       12.00      0          0          0          0
CN-C8-020        12.00      0          0          0          0
CN-C8-025a       12.00      0          0          0          0
CN-C8-030a       12.00      0          0          0          0
CN-C8-035a       12.00      0          0          0          0
CN-OL-005b       12.00      0          0          0          0
CN-OL-010a       12.00      0          0          0          0
CN-C834-S        12.00      0          0          0          0
CN-C8-045        0          0          0          0          0
CN-C8-040a       12.00      0          0          0          0
CN-C8-050a       12.00      0          0          0          0
CN-C802-Sa       12.00      0          0          0          0
CN-C807-N        12.00      0          0          0          0
CN-C809-S        12.00      0          0          0          0
CN-C8-055a       12.00      0          0          0          0
CN-LKNESSa       12.00      0          0          0          0
CN-GD-005a       12.00      0          0          0          0
CN-C846-Wa       12.00      0          0          0          0
CN-C847-Wa       12.00      0          0          0          0
CN-C849-W        12.00      0          0          0          0
CN-C843-N        12.00      0          0          0          0
CN-C844-N        12.00      0          0          0          0
CN-C8-060a       12.00      0          0          0          0
CN-C820-Wa       12.00      0          0          0          0
CN-C817-W        12.00      0          0          0          0
CN-C814-W        12.00      0          0          0          0
CN-C8-010b       12.00      0          0          0          0
CN-C8-030c       12.00      0          0          0          0
CN-C8-030d       12.00      0          0          0          0
CN-C8-030e       12.00      0          0          0          0
CN-C8-035b       12.00      0          0          0          0
CN-C8-035c       12.00      0          0          0          0
CN-C8-040b       12.00      0          0          0          0
CN-C8-045a       12.00      0          0          0          0
CN-C8-045c       12.00      0          0          0          0
CN-C8-045b       12.00      0          0          0          0
CN-C8-050b       12.00      0          0          0          0
CN-C8-055c       12.00      0          0          0          0
CN-C8-055d       12.00      0          0          0          0
CN-C8-060b       12.00      0          0          0          0
CN-C8-060c       12.00      0          0          0          0
CN-C8-060d       12.00      0          0          0          0
CN-C814-E        12.00      0          0          0          0
CN-C824-Wa       12.00      0          0          0          0
CN-C824-Wb       12.00      0          0          0          0
CN-C826-Wa       12.00      0          0          0          0
CN-C846-Wb       12.00      0          0          0          0
CN-C847-Wb       12.00      0          0          0          0
CN-GD-005b       12.00      0          0          0          0
CN-GD-005c       12.00      0          0          0          0
CN-LKNESSb       12.00      0          0          0          0
CN-LKNESSc       12.00      0          0          0          0
CN-OL-005a       12.00      0          0          0          0
CN-OL-010b       12.00      0          0          0          0
CN-OL-010c       12.00      0          0          0          0
CN-OL-010d       12.00      0          0          0          0
CN-C8-055b       0          0          0          0          0
CN-C8-030b       0          0          0          0          0
ADVNL            1.00       0          0          0          0
NEWSUB           1.00       0          0          0          0

[STORAGE]
;;Name           Elev       MaxDepth   InitDepth  Shape      Curve/Params
;;-------------- ---------- ---------- ---------- ---------- ----------
N-C850-W         12.00      0          3.75       FUNCTIONAL 0 0          0
N-C850-E         12.61      0          4.71       FUNCTIONAL 0 0          0
N-C849-W         12.61      0          9.50       FUNCTIONAL 0 0          0
N-C849-E         12.00      0          12.70      FUNCTIONAL 0 0          0
N-C848-W         12.00      0          12.70      FUNCTIONAL 217800.00 0          0
N-C848-E         12.00      0          13.80      FUNCTIONAL 0 0          0
N-C847-W         12.00      0          13.80      FUNCTIONAL 0 0          0
N-C847-E         12.00      0          13.80      FUNCTIONAL 0 0          0
N-C846-W         12.00      0          13.80      FUNCTIONAL 1071580.00 0          0
N-C846-E         12.00      0          10.40      FUNCTIONAL 0 0          0
N-C814-W         12.00      0          6.30       FUNCTIONAL 135036.00 0          0
N-C814-E         12.00      0          13.20      FUNCTIONAL 0 0          0
N-C813-W         12.00      0          13.20      FUNCTIONAL 0 0          0
N-C813-E         12.00      0          13.20      FUNCTIONAL 0 0          0
N-GD-005         12.00      0          11.60      FUNCTIONAL 0 0          0
N-LKDOON         12.00      0          9.90       FUNCTIONAL 0 0          0
N-LKNESS         12.00      0          9.30       FUNCTIONAL 1799028.00 0          0
N-C8-055         12.00      0          10.15      FUNCTIONAL 3528360.00 0          0
N-C811-W         12.00      0          13.20      FUNCTIONAL 0 0          0
N-C811-E         12.00      0          7.10       FUNCTIONAL 0 0          0
N-C844-S         12.10      0          9.50       FUNCTIONAL 0 0          0
N-C844-N         12.10      0          9.50       FUNCTIONAL 0 0          0
N-C842-S         12.10      0          9.50       FUNCTIONAL 0 0          0
N-C842-N         12.00      0          3.25       FUNCTIONAL 0 0          0
N-C843-N         12.10      0          9.50       FUNCTIONAL 0 0          0
N-C843-S         12.10      0          9.50       FUNCTIONAL 0 0          0
N-C8-050         12.00      0          16.70      FUNCTIONAL 3236508.00 0          0
N-C807-N         12.00      0          16.70      FUNCTIONAL 0 0          0
N-C807-S         12.00      0          8.10       FUNCTIONAL 0 0          0
N-C808-N         12.00      0          8.10       FUNCTIONAL 0 0          0
N-C808-S         12.00      0          8.10       FUNCTIONAL 0 0          0
N-C809-N         12.00      0          8.10       FUNCTIONAL 0 0          0
N-C809-S         12.00      0          8.10       FUNCTIONAL 0 0          0
N-C810-N         12.00      0          8.10       FUNCTIONAL 0 0          0
N-C810-S         12.00      0          9.10       FUNCTIONAL 0 0          0
N-C815-W         12.00      0          7.10       FUNCTIONAL 0 0          0
N-C815-E         12.00      0          7.10       FUNCTIONAL 0 0          0
N-C816-E         12.80      0          8.10       FUNCTIONAL 0 0          0
N-C816-W         12.00      0          7.10       FUNCTIONAL 0 0          0
N-C824-W         19.20      -7.20      12.51      FUNCTIONAL 0 0          0
N-C824-E         19.20      -7.20      13.13      FUNCTIONAL 0 0          0
N-C819-E         12.00      0          7.10       FUNCTIONAL 0 0          0
N-C819-W         12.00      0          8.60       FUNCTIONAL 0 0          0
N-C818-E         12.00      0          8.60       FUNCTIONAL 0 0          0
N-C818-W         13.00      0          8.10       FUNCTIONAL 0 0          0
N-C817-E         13.00      0          8.10       FUNCTIONAL 0 0          0
N-C817-W         12.80      0          8.10       FUNCTIONAL 0 0          0
N-C8-045         12.00      0          10.50      FUNCTIONAL 0 0          0
N-C820-W         12.00      0          7.10       FUNCTIONAL 0 0          0
N-C820-E         12.00      0          8.10       FUNCTIONAL 0 0          0
N-C821-W         12.00      0          8.10       FUNCTIONAL 0 0          0
N-C821-E         12.00      0          7.10       FUNCTIONAL 0 0          0
N-OL-015         12.00      0          7.40       FUNCTIONAL 0 0          0
N-C823-W         12.00      0          7.40       FUNCTIONAL 0 0          0
N-C823-E         12.00      0          7.40       FUNCTIONAL 0 0          0
N-OL-010         12.00      0          11.10      FUNCTIONAL 0 0          0
N-C8-040         12.00      0          11.50      FUNCTIONAL 0 0          0
N-C8-035         12.00      0          11.50      FUNCTIONAL 0 0          0
N-C834-S         12.00      0          13.70      FUNCTIONAL 6067908.00 0          0
N-OL-005         12.00      0          11.10      FUNCTIONAL 0 0          0
N-LSCOTT         12.00      0          6.11       FUNCTIONAL 879912.00 0          0
N-C832-S         12.00      0          6.90       FUNCTIONAL 0 0          0
N-C833-N         12.00      0          6.90       FUNCTIONAL 0 0          0
N-C833-S         12.00      0          6.90       FUNCTIONAL 0 0          0
N-C831-W         12.00      0          5.02       FUNCTIONAL 0 0          0
N-C830-N         12.00      0          4.07       FUNCTIONAL 0 0          0
N-C829-W         12.00      0          3.97       FUNCTIONAL 0 0          0
N-C828-W         12.00      0          4.25       FUNCTIONAL 0 0          0
N-C827-W         12.00      0          3.87       FUNCTIONAL 0 0          0
N-C826-W         12.00      0          1.67       FUNCTIONAL 614196.00 0          0
N-C834-N         12.00      0          4.32       FUNCTIONAL 653400.00 0          0
N-C8-030         12.00      0          13.70      FUNCTIONAL 0 0          0
N-C8-025         12.00      0          13.70      FUNCTIONAL 0 0          0
N-SP-050         12.00      0          11.90      FUNCTIONAL 0 0          0
N-C8-020         12.00      0          14.10      FUNCTIONAL 0 0          0
N-C8-015         12.00      0          15.10      FUNCTIONAL 0 0          0
S-28             12.30      -0.30      15.10      FUNCTIONAL 0 0          0
N-C8-010         12.30      -0.30      15.10      FUNCTIONAL 0 0          0
N-C845-N         12.10      0          9.50       FUNCTIONAL 0 0          0
N-C845-S         12.10      0          9.50       FUNCTIONAL 0 0          0
N-C8-060         12.10      0          11.00      FUNCTIONAL 0 0          0
N-C801-N         12.00      0          5.45       FUNCTIONAL 0 0          0
N-C801-S         12.00      0          5.38       FUNCTIONAL 0 0          0
N-C802-S         12.00      0          7.60       FUNCTIONAL 0 0          0
N-C803-N         12.00      0          7.60       FUNCTIONAL 0 0          0
N-C803-S         12.00      0          9.10       FUNCTIONAL 0 0          0
N-C804-N         12.00      0          9.10       FUNCTIONAL 0 0          0
N-C804-S         12.00      0          8.10       FUNCTIONAL 0 0          0
N-C805-N         12.00      0          8.10       FUNCTIONAL 0 0          0
N-C805-S         12.00      0          8.10       FUNCTIONAL 0 0          0
N-C806-N         12.00      0          8.10       FUNCTIONAL 0 0          0
N-C806-S         12.00      0          7.10       FUNCTIONAL 0 0          0
N-OL-020         12.00      0          10.40      FUNCTIONAL 0 0          0
N-SEABOARD       12.00      -2.00      1.00       FUNCTIONAL 43560.00 0          0

[CONDUITS]
;;Name           From             To               Length     Roughness  InOffset   OutOffset  InitFlow   MaxFlow
;;-------------- ---------------- ---------------- ---------- ---------- ---------- ---------- ---------- ----------
C842             N-C842-N         N-C842-S         31.00      0.0130     -1.15      -0.80      0          0
GDC32803         N-C842-S         N-C843-N         1100.00    0          -7.40      -7.40      0          0
GDC32802         N-C843-S         N-C844-N         500.00     0          -7.40      -7.40      0          0
C867500          N-LKDOON         N-LKNESS         30.00      0          -6.30      -6.30      0          0
GDC27600         N-C846-W         N-GD-005         3200.00    0          -9.50      -9.50      0          0
C814             N-C814-W         N-C814-E         105.00     0.0130     0.25       0.29       0          0
OLC03000         N-C814-E         N-C813-W         3200.00    0          -11.10     -11.10     0          0
C813             N-C813-W         N-C813-E         126.50     0.0280     -5.20      -5.46      0          0
OLC03001         N-C813-E         N-C811-W         2000.00    0          -11.10     -11.10     0          0
C811             N-C811-W         N-C811-E         165.00     0.0280     1.28       1.76       0          0
C850             N-C850-W         N-C850-E         81.00      0.0280     -1.65      -2.61      0          0
GDC14400         N-C850-E         N-C849-W         1600.00    0          -2.00      -2.00      0          0
C849             N-C849-W         N-C849-E         188.00     0.0130     -7.40      -7.40      0          0
GDC17500         N-C849-E         N-C848-W         1000.00    0          -10.60     -10.60     0          0
C848             N-C848-W         N-C848-E         420.00     0.0130     -8.00      -8.00      0          0
GDC21901         N-C848-E         N-C847-W         2100.00    0          -11.70     -11.70     0          0
C847             N-C847-W         N-C847-E         172.00     0.0130     -8.40      -8.40      0          0
GDC21900         N-C847-E         N-C846-W         3000.00    0          -11.70     -11.70     0          0
C809             N-C809-S         N-C809-N         68.50      0.0280     -4.10      -2.80      0          0
RRC29101         N-C809-N         N-C808-S         900.00     0          -6.00      -6.00      0          0
C808             N-C808-S         N-C808-N         38.30      0.0280     -4.90      -4.82      0          0
RRC29102         N-C808-N         N-C807-S         300.00     0          -6.00      -6.00      0          0
C807             N-C807-S         N-C807-N         44.00      0.0280     -5.00      -5.21      0          0
RRC26700         N-C811-W         N-C810-S         1100.00    0          -7.00      -7.00      0          0
C810             N-C810-S         N-C810-N         65.00      0.0280     -4.83      -4.74      0          0
RRC29100         N-C810-N         N-C809-S         2550.00    0          -6.00      -6.00      0          0
OLC03400         N-C811-E         N-C815-W         5700.00    0          -5.00      -5.00      0          0
C815             N-C815-W         N-C815-E         64.00      0.0130     -0.54      -1.56      0          0
C854900          N-C807-N         N-C8-050         2600.00    0          -14.60     -14.60     0          0
C847900          N-C8-050         N-C824-W         8300.00    0          -7.60      -7.60      0          0
C824             N-C824-W         N-C824-E         133.00     0.0280     -10.41     -11.03     0          0
OLC02100         N-C815-E         N-C816-W         3000.00    0          -5.00      -5.00      0          0
C816             N-C816-W         N-C816-E         109.00     0.0280     -2.68      -2.78      0          0
OLC05920         N-C816-E         N-C817-W         2600.00    0          -6.00      -6.00      0          0
C817             N-C817-W         N-C817-E         180.00     0.0280     -4.33      -4.43      0          0
OLC06540         N-C817-E         N-C818-W         500.00     0          -6.00      -6.00      0          0
C818             N-C818-W         N-C818-E         161.00     0.0280     -5.23      -3.88      0          0
OLC08150         N-C818-E         N-C819-W         1400.00    0          -6.50      -6.50      0          0
OLC10200         N-C819-E         N-C820-W         1900.00    0          -5.00      -5.00      0          0
C820             N-C820-W         N-C820-E         58.00      0.0280     -1.53      0.62       0          0
OLC06873         N-C821-E         N-OL-010         4400.00    0          -5.00      -5.00      0          0
BUR01900         N-OL-015         N-C823-W         700.00     0          -5.30      -5.30      0          0
C823             N-C823-W         N-C823-E         125.00     0.0130     -0.59      0.26       0          0
BUR01901         N-C823-E         N-OL-010         900.00     0          -5.30      -5.30      0          0
C838700          N-C8-045         N-C8-040         2600.00    0          -7.60      -7.60      0          0
C837400          N-C8-040         N-C8-035         2700.00    0          -9.40      -9.40      0          0
C834000          N-C8-035         N-C834-S         2800.00    0          -7.90      -7.90      0          0
OLC03500         N-OL-010         N-OL-005         1900.00    0          -9.00      -9.00      0          0
OLC03499         N-OL-005         N-C834-S         100.00     0          -9.00      -9.00      0          0
C832             N-LSCOTT         N-C832-S         74.00      0.0280     -4.01      -4.00      0          0
1602000          N-C832-S         N-C833-N         400.00     0          -4.80      -4.80      0          0
C833             N-C833-N         N-C833-S         275.00     0.0130     -2.79      -4.01      0          0
1602001          N-C833-S         N-C8-035         3700.00    0          -4.80      -4.80      0          0
C834             N-C834-N         N-C834-S         605.00     0.0280     -2.22      -0.74      0          0
C827301          N-C834-S         N-C8-030         2500.00    0          -11.60     -11.60     0          0
C827300          N-C8-030         N-C8-025         6800.00    0          -11.60     -11.60     0          0
C821400          N-C8-025         N-C8-020         3900.00    0          -10.20     -10.20     0          0
C819100          N-C8-020         N-C8-015         3500.00    0          -12.00     -12.00     0          0
C815600          N-C8-015         N-C8-010         3400.00    0          -13.00     -13.00     0          0
C810000          N-C8-010         S-28             3200.00    0          -13.00     -13.00     0          0
SPC01200         N-SP-050         N-C8-025         4500.00    0          -9.80      -9.80      0          0
C846a            C846b            N-C846-E         275.00     0.0130     -6.40      -6.40      0          0
C844a            C844b            N-C844-S         33.00      0.0130     -0.70      -0.65      0          0
C843a            C843b            N-C843-S         49.00      0.0130     -1.25      -0.05      0          0
C826a            C826b            C826c            143.00     0.0280     0.53       -0.67      0          0
C827a            C827b            C827c            60.00      0.0280     -0.87      -1.67      0          0
C828a            C828b            C828c            55.00      0.0280     -2.15      0.43       0          0
C829a            C829b            C829c            55.00      0.0280     -1.27      -1.27      0          0
C830a            C830b            C830c            54.00      0.0280     -0.17      -0.17      0          0
C831a            C831b            C831c            67.00      0.0130     -2.77      -1.32      0          0
C819a            C819b            C819c            34.00      0.0130     0.72       1.07       0          0
C821a            C821b            N-C821-E         466.00     0.0130     -3.33      -2.56      0          0
C866500          N-LKNESS         N-C8-055         2800.00    0          -7.20      -7.20      0          0
C857100          N-C8-055         N-C807-N         3600.00    0          -8.05      -8.05      0          0
GDC32801         N-C844-S         N-C845-N         200.00     0          -7.40      -7.40      0          0
C845             N-C845-N         N-C845-S         122.00     0.0280     -0.30      -2.35      0          0
GDC32800         N-C845-S         N-C8-060         1100.00    0          -7.40      -7.40      0          0
C869000          N-C8-060         N-LKDOON         2400.00    0          -7.80      -7.80      0          0
GDC29700         N-GD-005         N-C8-060         2200.00    0          -8.90      -8.90      0          0
203              CN-LSCOTT        N-LSCOTT         0          0          0          0          0          0
205              CN-C833-N        N-C833-N         0          0          0          0          0          0
209              CN-C826-Wb       N-C826-W         0          0          0          0          0          0
211              CN-C831-W        N-C831-W         0          0          0          0          0          0
213              CN-C8-005        N-C8-010         0          0          0          0          0          0
215              CN-C8-010a       N-C8-010         0          0          0          0          0          0
217              CN-C8-020        N-C8-020         0          0          0          0          0          0
219              CN-C8-025a       N-C8-025         0          0          0          0          0          0
221              CN-C8-030a       N-C8-030         0          0          0          0          0          0
223              CN-C8-035a       N-C8-035         0          0          0          0          0          0
225              CN-OL-005b       N-OL-005         0          0          0          0          0          0
227              CN-OL-010a       N-OL-010         0          0          0          0          0          0
229              CN-C834-S        N-C834-S         0          0          0          0          0          0
232              CN-C8-040a       N-C8-040         0          0          0          0          0          0
233              CN-C8-045        N-C8-045         0          0          0          0          0          0
237              CN-C8-050a       N-C8-050         0          0          0          0          0          0
C801             N-C801-N         N-C801-S         1170.00    0.0280     -3.35      -3.28      0          0
C802             N-C801-S         N-C802-S         500.00     0.0280     -3.28      -2.82      0          0
RRC34500         N-C802-S         N-C803-N         650.00     0          -5.50      -5.50      0          0
C803             N-C803-N         N-C803-S         124.00     0.0130     -4.70      -4.95      0          0
RRC33900         N-C803-S         N-C804-N         450.00     0          -7.00      -7.00      0          0
RRC33500         N-C804-S         N-C805-N         600.00     0          -6.00      -6.00      0          0
C805             N-C805-N         N-C805-S         84.00      0.0280     -2.10      -4.70      0          0
RRC32900         N-C805-S         N-C806-N         200.00     0          -6.00      -6.00      0          0
C806             N-C806-N         N-C806-S         96.00      0.0280     -2.50      -3.20      0          0
RRC31700         N-C806-S         N-C807-N         1200.00    0          -5.00      -5.00      0          0
262              CN-C802-Sa       N-C802-S         0          0          0          0          0          0
264              CN-C807-N        N-C807-N         0          0          0          0          0          0
266              CN-C809-S        N-C809-S         0          0          0          0          0          0
268              CN-C8-055a       N-C8-055         0          0          0          0          0          0
270              CN-LKNESSa       N-LKNESS         0          0          0          0          0          0
272              CN-GD-005a       N-GD-005         0          0          0          0          0          0
274              CN-C846-Wa       N-C846-W         0          0          0          0          0          0
276              CN-C847-Wa       N-C847-W         0          0          0          0          0          0
281              CN-C843-N        N-C843-N         0          0          0          0          0          0
282              CN-C844-N        N-C844-N         0          0          0          0          0          0
284              CN-C8-060a       N-C8-060         0          0          0          0          0          0
288              CN-C820-Wa       N-C820-W         0          0          0          0          0          0
290              CN-C817-W        N-C817-W         0          0          0          0          0          0
294              CN-C814-W        N-C814-W         0          0          0          0          0          0
296              CN-C8-010b       N-C8-010         0          0          0          0          0          0
302              CN-C8-030c       N-C8-030         0          0          0          0          0          0
305              CN-C8-030d       N-C8-030         0          0          0          0          0          0
306              CN-C8-030e       N-C8-030         0          0          0          0          0          0
309              CN-C8-035c       N-C8-035         0          0          0          0          0          0
310              CN-C8-035b       N-C8-035         0          0          0          0          0          0
312              CN-C8-040b       N-C8-040         0          0          0          0          0          0
315              CN-C8-045a       N-C8-045         0          0          0          0          0          0
316              CN-C8-045c       N-C8-045         0          0          0          0          0          0
318              CN-C8-045b       N-C8-045         0          0          0          0          0          0
320              CN-C8-050b       N-C8-050         0          0          0          0          0          0
325              CN-C8-055c       N-C8-055         0          0          0          0          0          0
326              CN-C8-055d       N-C8-055         0          0          0          0          0          0
331              CN-C8-060b       N-C8-060         0          0          0          0          0          0
332              CN-C8-060c       N-C8-060         0          0          0          0          0          0
333              CN-C8-060d       N-C8-060         0          0          0          0          0          0
337              CN-C814-E        N-C814-E         0          0          0          0          0          0
342              CN-C824-Wa       N-C824-W         0          0          0          0          0          0
343              CN-C824-Wb       N-C824-W         0          0          0          0          0          0
347              CN-C846-Wb       N-C846-W         0          0          0          0          0          0
349              CN-C847-Wb       N-C847-W         0          0          0          0          0          0
352              CN-GD-005b       N-GD-005         0          0          0          0          0          0
353              CN-GD-005c       N-GD-005         0          0          0          0          0          0
355              CN-LKNESSb       N-LKNESS         0          0          0          0          0          0
357              CN-LKNESSc       N-LKNESS         0          0          0          0          0          0
359              CN-OL-005a       N-OL-005         0          0          0          0          0          0
362              CN-OL-010b       N-OL-010         0          0          0          0          0          0
363              CN-OL-010c       N-OL-010         0          0          0          0          0          0
365              CN-OL-010d       N-OL-010         0          0          0          0          0          0
OLC09900         N-C846-E         N-OL-020         3100.00    0          -8.30      -8.30      0          0
OLC06600         N-OL-020         N-C814-W         3100.00    0          -4.20      -4.20      0          0
369              CN-C826-Wa       N-C826-W         0          0          0          0          0          0
373              CN-C849-W        N-C849-W         0          0          0          0          0          0
C804a            C804b            C804c            46.00      0.0130     -1.93      -0.33      0          0
C843900          N-C824-E         N-C8-045         4800.00    0          -8.40      -8.40      0          0
OLC11440         N-C820-E         N-C821-W         600.00     0          -6.00      -6.00      0          0
386              CN-C8-055b       N-C8-055         0          0          0          0          0          0
388              CN-C8-030b       N-C8-030         0          0          0          0          0          0

[PUMPS]
;;Name           From             To               PumpCurve  Status   Startup    Shutoff
;;-------------- ---------------- ---------------- ---------- -------- ---------- ----------
PUMP             N-SEABOARD       N-C8-020         PC_PUMP    ON       2.40       -0.35     

[CURVES]
;;Name           Type       X-Value    Y-Value
;;-------------- ---------- ---------- ----------
PC_PUMP          Pump4      0          0
;

[XSECTIONS]
;;Link           Shape        Geom1      Geom2      Geom3      Geom4      Barrels