;; SWMM5 .inp converted from XPSWMM .xp file
;; Generated by XPSWMM Card Reader
;; Source format: XP_CARD | Original title: Metropolitan Water District                       08/05 /94

[TITLE]
;;Project Title/Notes
Metropolitan Water District                       08/05 /94

[OPTIONS]
FLOW_UNITS           CFS
INFILTRATION         HORTON
FLOW_ROUTING         DYNWAVE
LINK_OFFSETS         DEPTH
MIN_SLOPE            0.0
ALLOW_PONDING        NO
SKIP_STEADY_STATE    NO
ROUTING_STEP         00:00:10
VARIABLE_STEP        0.75
INERTIAL_DAMPING     PARTIAL
NORMAL_FLOW_LIMITED  BOTH
MAX_TRIALS           50
HEAD_TOLERANCE       0.0033

[JUNCTIONS]
;;Name           Elev       MaxDepth   InitDepth  SurDepth   Aponded
;;-------------- ---------- ---------- ---------- ---------- ----------
201              1950.00    0          1.28       0          0
202              1950.00    0          0.96       0          0
203              1950.00    0          0.95       0          0
204              1950.00    0          90.74      0          0
205              1950.00    0          42.63      0          0
206              1950.00    0          125.54     0          0
207              1950.00    0          125.44     0          0
208              1950.00    0          125.43     0          0
209              1950.00    0          2.72       0          0
210              1950.00    0          86.54      0          0
211              1950.00    0          184.32     0          0
212              1900.00    0          34.11      0          0
213              1900.00    0          164.10     0          0
214              1900.00    0          75.90      0          0
215              1900.00    0          93.72      0          0
216              1900.00    0          183.68     0          0
217              1850.00    0          65.58      0          0
218              1850.00    0          173.53     0          0
219              1850.00    0          70.50      0          0
220              1850.00    0          67.50      0          0
221              1800.00    0          113.50     0          0
222              1800.00    0          313.49     0          0
223              1800.00    0          20.00      0          0
7223             1800.00    0          10.00      0          0
224              1600.00    0          0.24       0          0
225              1600.00    0          0.26       0          0
226              1350.00    0          0.30       0          0
227              1350.00    0          4.54       0          0
228              1350.00    0          72.92      0          0
7228             1350.00    0          42.92      0          0
229              1350.00    0          72.91      0          0
230              1150.00    0          22.92      0          0
231              1150.00    0          52.95      0          0
727              1200.00    0          13.00      0          0

[CONDUITS]
;;Name           From             To               Length     Roughness  InOffset   OutOffset  InitFlow   MaxFlow
;;-------------- ---------------- ---------------- ---------- ---------- ---------- ---------- ---------- ----------
P201             201              202              1134.00    0.0130     1900.00    1879.00    0          0
P202             202              203              614.00     0.0130     1879.00    1855.00    0          0
P203             203              204              5698.00    0.0120     1855.00    1635.00    0          0
P204             204              205              3156.00    0.0120     1635.00    1683.00    0          0
P205             205              206              9922.00    0.0120     1683.00    1600.00    0          0
P206             206              207              7990.00    0.0120     1600.00    1600.00    0          0
P207             207              208              500.00     0.0120     1600.00    1600.00    0          0
P208             208              209              11294.00   0.0120     1600.00    1722.00    0          0
P209             209              210              7785.00    0.0120     1722.00    1638.00    0          0
P210             210              211              12612.00   0.0120     1638.00    1540.00    0          0
P211             211              212              8626.00    0.0120     1540.00    1690.00    0          0
P212             212              213              3997.00    0.0120     1690.00    1560.00    0          0
P213             213              214              6838.00    0.0120     1560.00    1648.00    0          0
P214             214              215              8310.00    0.0120     1648.00    1630.00    0          0
P215             215              216              6628.00    0.0120     1630.00    1540.00    0          0
P216             216              217              8310.00    0.0120     1540.00    1658.00    0          0
P217             217              218              5441.00    0.0120     1658.00    1550.00    0          0
P218             218              219              9984.00    0.0120     1550.00    1653.00    0          0
P219             219              220              500.00     0.0120     1653.00    1656.00    0          0
P220             220              221              5260.00    0.0120     1656.00    1610.00    0          0
P221             221              222              8521.00    0.0120     1610.00    1410.00    0          0
P222             222              223              8942.00    0.0120     1410.00    1567.00    0          0
P223             7223             224              3110.00    0.0120     1567.00    1567.00    0          0
P224             224              225              1268.00    0.0120     1567.00    1470.00    0          0
P225             225              226              3050.00    0.0120     1470.00    1290.00    0          0
P226             226              227              3997.00    0.0120     1290.00    1150.00    0          0
P227             227              228              4996.00    0.0120     1150.00    1050.00    0          0
P228             7228             229              1315.00    0.0120     1050.00    1020.00    0          0
P229             229              230              7364.00    0.0120     1020.00    1070.00    0          0
P230             230              231              2314.00    0.0120     1070.00    1040.00    0          0
P726             231              727              3000.00    0.0130     1040.00    1080.00    0          0
P7223            223              7223             33.00      0.0140     1567.00    1567.00    0          0
P7228            228              7228             33.00      0.0140     1090.00    1090.00    0          0

[XSECTIONS]
;;Link           Shape        Geom1      Geom2      Geom3      Geom4      Barrels
;;-------------- ------------ ---------- ---------- ---------- ---------- ----------
P201             CIRCULAR     11.30      0          0          0          1
P202             CIRCULAR     11.30      0          0          0          1
P203             CIRCULAR     10.00      0          0          0          1
P204             CIRCULAR     10.00      0          0          0          1
P205             CIRCULAR     10.00      0          0          0          1
P206             CIRCULAR     10.00      0          0          0          1
P207             CIRCULAR     10.00      0          0          0          1
P208             CIRCULAR     10.00      0          0          0          1
P209             CIRCULAR     10.00      0          0          0          1
P210             CIRCULAR     8.00       0          0          0          1
P211             CIRCULAR     8.00       0          0          0          1
P212             CIRCULAR     8.00       0          0          0          1
P213             CIRCULAR     8.00       0          0          0          1
P214             CIRCULAR     8.00       0          0          0          1
P215             CIRCULAR     10.00      0          0          0          1
P216             CIRCULAR     10.00      0          0          0          1
P217             CIRCULAR     10.00      0          0          0          1
P218             CIRCULAR     10.00      0          0          0          1
P219             CIRCULAR     10.00      0          0          0          1
P220             CIRCULAR     8.00       0          0          0          1
P221             CIRCULAR     8.00       0          0          0          1
P222             CIRCULAR     8.00       0          0          0          1
P223             CIRCULAR     8.00       0          0          0          1
P224             CIRCULAR     8.00       0          0          0          1
P225             CIRCULAR     8.00       0          0          0          1
P226             CIRCULAR     8.00       0          0          0          1
P227             CIRCULAR     8.00       0          0          0          1
P228             CIRCULAR     15.50      0          0          0          1
P229             CIRCULAR     12.50      0          0          0          1
P230             CIRCULAR     12.50      0          0          0          1
P726             CIRCULAR     11.70      0          0          0          1
P7223            CIRCULAR     8.00       0          0          0          1
P7228            CIRCULAR     8.00       0          0          0          1

[LOSSES]
;;Link           Inlet      Outlet     Average    Flap Gate
;;-------------- ---------- ---------- ---------- ----------
P201             0          0          0          NO
P202             0          0          0          NO
P203             0          0          0          NO
P204             0          0          0          NO
P205             0          0          0          NO
P206             0          0          0          NO
P207             0          0          0          NO
P208             0          0          0          NO
P209             0          0          0          NO
P210             0          0          0          NO
P211             0          0          0          NO
P212             0          0          0          NO
P213             0          0          0          NO
P214             0          0          0          NO
P215             0          0          0          NO
P216             0          0          0          NO
P217             0          0          0          NO
P218             0          0          0          NO
P219             0          0          0          NO
P220             0          0          0          NO
P221             0          0          0          NO
P222             0          0          0          NO
P223             0          0          0          NO
P224             0          0          0          NO
P225             0          0          0          NO
P226             0          0          0          NO
P227             0          0          0          NO
P228             0          0          0          NO
P229             0          0          0          NO
P230             0          0          0          NO
P726             0          0          0          NO
P7223            0          0          0          NO
P7228            0          0          0          NO

[INFLOWS]
;;Node           Constituent  Time Series      Type     Mfactor  Sfactor  Baseline Pattern
;;-------------- ------------ ---------------- -------- -------- -------- -------- --------
201              FLOW         ""               FLOW     1.0      1.0      67.00

[COORDINATES]
;;Node           X-Coord            Y-Coord
;;-------------- ------------------ ------------------
201              351.00             -221.32           
202              359.61             -194.57           
203              373.92             -172.55           
204              392.02             -163.11           
205              415.82             -161.53           
206              460.49             -144.23           
207              518.44             -139.51           
208              570.69             -156.81           
209              628.64             -178.84           
210              661.93             -205.58           
211              700.90             -166.25           
212              736.08             -111.19           
213              687.77             -86.02            
214              614.79             -54.55            
215              549.40             -62.42            
216              484.01             -48.26            
217              479.35             20.96             
218              527.81             24.11             
219              597.14             27.25             
220              655.10             24.11             
221              714.94             14.67             
222              759.61             71.31             
223              737.87             149.97            
7223             676.04             149.48            
224              569.06             137.25            
225              517.80             142.99            
226              474.85             145.64            
227              427.38             142.93            
228              440.44             222.41            
7228             451.10             276.15            
229              517.16             302.54            
230              547.47             355.10            
231              611.75             369.66            
727              682.97             391.35            

[MAP]
DIMENSIONS 351.00 -221.32 759.61 391.35
Units      None

[REPORT]
INPUT            YES
SUBCATCHMENTS    ALL
NODES            ALL
LINKS            ALL



