;; SWMM5 .inp converted from XPSWMM .xp file
;; Generated by XPSWMM Card Reader
;; Source format: XP_CARD | Original title: This is an XPX File

[TITLE]
;;Project Title/Notes
This is an XPX File

[OPTIONS]
FLOW_UNITS           CFS
INFILTRATION         HORTON
FLOW_ROUTING         DYNWAVE
LINK_OFFSETS         DEPTH
MIN_SLOPE            0.0
ALLOW_PONDING        NO
SKIP_STEADY_STATE    NO
ROUTING_STEP         00:00:10
VARIABLE_STEP        0.75
INERTIAL_DAMPING     NONE
NORMAL_FLOW_LIMITED  BOTH
MAX_TRIALS           50
HEAD_TOLERANCE       .001

[JUNCTIONS]
;;Name           Elev       MaxDepth   InitDepth  SurDepth   Aponded
;;-------------- ---------- ---------- ---------- ---------- ----------
1802             1200.00    0          151.00     0          0
1804             1067.00    0          32.00      0          0
1806             1067.00    0          312.00     0          0
1808             1067.00    0          332.00     0          0
1810             971.00     0          31.00      0          0
1811             971.00     0          386.00     0          0
1812             820.00     0          24.00      0          0
1814             670.00     0          20.20      0          0
1202             1072.00    0          92.00      0          0
1204             1072.00    0          137.00     0          0
1206             1072.00    0          42.00      0          0
1208             1038.00    0          68.00      0          0
1210             1038.00    0          98.00      0          0
1212             1009.00    0          109.00     0          0
1214             1009.00    0          294.00     0          0
1216             1009.00    0          139.00     0          0
1218             1009.00    0          44.00      0          0
1220             1009.00    0          154.00     0          0
1222             1009.00    0          149.00     0          0
1224             954.00     0          24.00      0          0
1226             954.00     0          39.10      0          0

[CONDUITS]
;;Name           From             To               Length     Roughness  InOffset   OutOffset  InitFlow   MaxFlow
;;-------------- ---------------- ---------------- ---------- ---------- ---------- ---------- ---------- ----------
P1803            1802             1804             10324.00   0.0120     1049.00    1035.00    0          0
P1805            1804             1806             11643.00   0.0120     1035.00    755.00     0          0
P1807            1806             1808             4542.00    0.0120     755.00     735.00     0          0
P1809            1808             1810             9354.00    0.0120     735.00     940.00     0          0
P1810            1810             1811             6614.00    0.0120     940.00     585.00     0          0
P1811            1811             1812             16644.00   0.0120     585.00     796.00     0          0
P1812            1812             1814             22746.00   0.0120     796.00     649.80     0          0
P1203            1202             1204             12300.00   0.0120     980.00     935.00     0          0
P1205            1204             1206             12300.00   0.0120     935.00     1030.00    0          0
P1207            1206             1208             7960.00    0.0120     1030.00    970.00     0          0
P1209            1208             1210             32000.00   0.0120     970.00     940.00     0          0
P1211            1210             1212             5681.00    0.0120     940.00     900.00     0          0
P1213            1212             1214             2800.00    0.0120     900.00     715.00     0          0
P1215            1214             1216             8600.00    0.0120     715.00     870.00     0          0
P1217            1216             1218             6500.00    0.0120     870.00     965.00     0          0
P1219            1218             1220             10500.00   0.0120     965.00     855.00     0          0
P1221            1220             1222             16916.00   0.0120     855.00     860.00     0          0
P1223            1222             1224             4100.00    0.0120     860.00     930.00     0          0
P1225            1224             1226             4418.00    0.0120     930.00     914.90     0          0

[XSECTIONS]
;;Link           Shape        Geom1      Geom2      Geom3      Geom4      Barrels
;;-------------- ------------ ---------- ---------- ---------- ---------- ----------
P1803            CIRCULAR     3.50       0          0          0          1
P1805            CIRCULAR     3.25       0          0          0          1
P1807            CIRCULAR     4.00       0          0          0          1
P1809            CIRCULAR     3.25       0          0          0          1
P1810            CIRCULAR     3.00       0          0          0          1
P1811            CIRCULAR     3.00       0          0          0          1
P1812            CIRCULAR     3.00       0          0          0          1
P1203            CIRCULAR     10.25      0          0          0          1
P1205            CIRCULAR     10.25      0          0          0          1
P1207            CIRCULAR     10.00      0          0          0          1
P1209            CIRCULAR     10.00      0          0          0          1
P1211            CIRCULAR     10.00      0          0          0          1
P1213            CIRCULAR     9.75       0          0          0          1
P1215            CIRCULAR     9.67       0          0          0          1
P1217            CIRCULAR     10.00      0          0          0          1
P1219            CIRCULAR     9.67       0          0          0          1
P1221            CIRCULAR     10.00      0          0          0          1
P1223            CIRCULAR     9.67       0          0          0          1
P1225            CIRCULAR     10.00      0          0          0          1

[LOSSES]
;;Link           Inlet      Outlet     Average    Flap Gate
;;-------------- ---------- ---------- ---------- ----------
P1803            0          0          0          NO
P1805            0          0          0          NO
P1807            0          0          0          NO
P1809            0          0          0          NO
P1810            0          0          0          NO
P1811            0          0          0          NO
P1812            0          0          0          NO
P1203            0          0          0          NO
P1205            0          0          0          NO
P1207            0          0          0          NO
P1209            0          0          0          NO
P1211            0          0          0          NO
P1213            0          0          0          NO
P1215            0          0          0          NO
P1217            0          0          0          NO
P1219            0          0          0          NO
P1221            0          0          0          NO
P1223            0          0          0          NO
P1225            0          0          0          NO

[INFLOWS]
;;Node           Constituent  Time Series      Type     Mfactor  Sfactor  Baseline Pattern
;;-------------- ------------ ---------------- -------- -------- -------- -------- --------
1802             FLOW         ""               FLOW     1.0      1.0      49.11
1202             FLOW         ""               FLOW     1.0      1.0      599.84

[COORDINATES]
;;Node           X-Coord            Y-Coord
;;-------------- ------------------ ------------------
1802             -709147.36         1537667.64        
1804             -701656.36         1537298.64        
1806             -693800.36         1529209.64        
1808             -692856.36         1527589.64        
1810             -687596.36         1523000.64        
1811             -682765.36         1519846.64        
1812             -671275.36         1516386.64        
1814             -649164.36         1507139.64        
1202             -710005.36         1534402.64        
1204             -714293.36         1530755.64        
1206             -725179.36         1509312.64        
1208             -733102.36         1501988.64        
1210             -731790.36         1473632.64        
1212             -732729.36         1469476.64        
1214             -732344.36         1465217.64        
1216             -731801.36         1456932.64        
1218             -731460.36         1450446.64        
1220             -730142.36         1440522.64        
1222             -729518.36         1421854.64        
1224             -727750.36         1419441.64        
1226             -726627.36         1417390.64        

[MAP]
DIMENSIONS -733102.36 1417390.64 -649164.36 1537667.64
Units      None

[REPORT]
INPUT            YES
SUBCATCHMENTS    ALL
NODES            ALL
LINKS            ALL



