;; SWMM5 .inp converted from XPSWMM .xp file
;; Generated by XPSWMM Card Reader
;; Source format: XP_CARD | Original title: ALCOSAN WET RAMP   FREE OUTFALL AT WWTP (EL. 680)   BEST GRIT, Q, N EST.

[TITLE]
;;Project Title/Notes
ALCOSAN WET RAMP   FREE OUTFALL AT WWTP (EL. 680)   BEST GRIT, Q, N EST.

[OPTIONS]
FLOW_UNITS           CFS
INFILTRATION         HORTON
FLOW_ROUTING         DYNWAVE
LINK_OFFSETS         DEPTH
MIN_SLOPE            0.0
ALLOW_PONDING        NO
SKIP_STEADY_STATE    NO
ROUTING_STEP         00:00:05
VARIABLE_STEP        0.75
INERTIAL_DAMPING     NONE
NORMAL_FLOW_LIMITED  BOTH
MAX_TRIALS           100

[JUNCTIONS]
;;Name           Elev       MaxDepth   InitDepth  SurDepth   Aponded
;;-------------- ---------- ---------- ---------- ---------- ----------
O26-FO           712.00     0          0          0          0
M01-00           713.00     0          0          0          0
O43-04           734.30     0          0          0          0
M02-00           713.00     0          0          0          0
M03-00           712.60     0          0          0          0
M04-00           730.00     0          0          0          0
M05-00           738.00     0          0          0          0
M09-00           730.00     0          0          0          0
M11-00           728.00     0          0          0          0
M12-00           728.00     0          0          0          0
M13-00           713.00     0          0          0          0
M14-00           713.30     0          0          0          0
M15-00           720.60     0          0          0          0
M16-00           730.20     0          0          0          0
M17-00           717.90     0          0          0          0
M18-00           729.00     0          0          0          0
M19-00           733.70     0          0          0          0
M20-00           717.00     0          0          0          0
M21-00           721.30     0          0          0          0
M22-00           719.30     0          0          0          0
M23-00           716.50     0          0          0          0
M25-00           715.00     0          0          0          0
M24-00           711.30     0          0          0          0
M25-VOR          715.00     0          0          0          0
M26-00           707.70     0          0          0          0
M27-00           719.80     0          0          0          0
M29-00           750.00     0          0          0          0
M30-00           760.00     0          0          0          0
M46-00           762.50     0          0          0          0
M47-00           738.00     0          0          0          0
M48-00           748.50     0          0          0          0
M49-02           746.30     0          0          0          0
M49-01           718.00     0          0          0          0
M49-00           713.50     0          0          0          0
M50-00           744.70     0          0          0          0
M51-00           738.20     0          0          0          0
M52-00           736.00     0          0          0          0
M53-00           735.30     0          0          0          0
M54-00           736.70     0          0          0          0
M55-00           737.40     0          0          0          0
M56-00           735.10     0          0          0          0
M57-00           735.60     0          0          0          0
M58-00           735.60     0          0          0          0
M61-00           735.00     0          0          0          0
M31-00           768.40     0          0          0          0
M31-02           771.30     0          0          0          0
M31-04           752.60     0          0          0          0
M33-00           717.80     0          0          0          0
M33-04           718.00     0          0          0          0
M34-00           710.00     0          0          0          0
M41-00           721.50     0          0          0          0
M42A02           718.00     0          0          0          0
M41SHFT          721.50     0          0          0          0
M42A00           715.40     0          0          0          0
T02-00           778.00     0          0          0          0
T03-00           734.60     0          0          0          0
O27-00           717.80     0          0          0          0
O28-00           711.80     0          0          0          0
O29-00           715.00     0          0          0          0
O30-00           721.40     0          0          0          0
O31-00           723.10     0          0          0          0
O32-00           713.00     0          0          0          0
O33-00           724.10     0          0          0          0
O34-00           729.10     0          0          0          0
O35-00           723.90     0          0          0          0
O36-00           719.80     0          0          0          0
O37-00           716.30     0          0          0          0
O38-00           711.60     0          0          0          0
O39-00           711.00     0          0          0          0
O40-00           721.00     0          0          0          0
O42-00           727.00     0          0          0          0
O14-00           719.00     0          0          0          0
O43-00           728.30     0          0          0          0
O43-02           725.10     0          0          0          0
A46-00           722.00     0          0          0          0
A47-00           712.00     0          0          0          0
A48-00           723.80     0          0          0          0
A49-00           715.80     0          0          0          0
A50-00           721.00     0          0          0          0
A51-00           716.00     0          0          0          0
A54-00           723.00     0          0          0          0
A55-00           711.60     0          0          0          0
A55-VOR          723.00     0          0          0          0
A56-00           715.50     0          0          0          0
A58-00           720.50     0          0          0          0
A59-00           722.10     0          0          0          0
A60-00           721.00     0          0          0          0
A61-00           720.00     0          0          0          0
A01-00           715.40     0          0          0          0
A02-00           715.70     0          0          0          0
A03-00           715.20     0          0          0          0
A04-00           717.10     0          0          0          0
A06-00           716.10     0          0          0          0
A07-00           716.10     0          0          0          0
A08-00           716.30     0          0          0          0
A09-00           716.50     0          0          0          0
A10-00           715.90     0          0          0          0
A11-00           718.70     0          0          0          0
A12-00           728.30     0          0          0          0
A13-00           730.70     0          0          0          0
A14-00           724.00     0          0          0          0
A15-00           727.00     0          0          0          0
A16-00           728.00     0          0          0          0
A17-00           731.00     0          0          0          0
A18-00           728.10     0          0          0          0
A19-00           731.20     0          0          0          0
A20-00           732.00     0          0          0          0
A21-00           732.40     0          0          0          0
A22-00           735.60     0          0          0          0
A23-00           733.80     0          0          0          0
A24-00           732.00     0          0          0          0
A25-00           730.80     0          0          0          0
A26-00           731.40     0          0          0          0
A27-00           733.00     0          0          0          0
A28-00           728.10     0          0          0          0
A29-00           730.80     0          0          0          0
A30-00           735.50     0          0          0          0
A31-00           736.60     0          0          0          0
A32-00           721.50     0          0          0          0
A33-00           715.70     0          0          0          0
A34-00           718.00     0          0          0          0
A35-00           723.50     0          0          0          0
A36-00           740.00     0          0          0          0
A37-00           716.60     0          0          0          0
A38-00           729.30     0          0          0          0
A39-00           720.00     0          0          0          0
A40-00           723.50     0          0          0          0
A41-00           738.70     0          0          0          0
A35-02           713.50     0          0          0          0
A68-00           710.00     0          0          0          0
A39-02           718.40     0          0          0          0
A72-00           713.50     0          0          0          0
A45-00           724.00     0          0          0          0
A44-02           734.20     0          0          0          0
A44-01           721.00     0          0          0          0
A44-00           733.50     0          0          0          0
O26-00           727.00     0          0          0          0
O26-CP4          723.50     0          0          0          0
O25-00           724.80     0          0          0          0
O24-00           838.90     0          0          0          0
O23-00           734.20     0          0          0          0
O22-00           731.40     0          0          0          0
O21-00           732.90     0          0          0          0
O20-00           822.00     0          0          0          0
O19-00           730.20     0          0          0          0
O18-00           722.80     0          0          0          0
O17-00           801.50     0          0          0          0
O16-00           712.80     0          0          0          0
O15-00           698.40     0          0          0          0
O23-02           736.20     0          0          0          0
O04-00           710.00     0          0          0          0
M41-VOR          721.50     0          0          0          0
O07-00           713.80     0          0          0          0
O06-00           725.00     0          0          0          0
O07-04           722.20     0          0          0          0
A42A-02          747.97     0          0          0          0
A42A-04          744.27     0          0          0          0
A42A-06          749.81     0          0          0          0
A42A-10          747.84     0          0          0          0
A42A-12          746.24     0          0          0          0
A42A-14          746.86     0          0          0          0
A42A-16          749.51     0          0          0          0
A42A-20          749.26     0          0          0          0
A42A-22          747.03     0          0          0          0
A42A-24          745.63     0          0          0          0
A42-04           742.52     0          0          0          0
A42-06           752.12     0          0          0          0
A42-08           747.40     0          0          0          0
A42-10           749.37     0          0          0          0
A42-12           748.58     0          0          0          0
A42-20           745.68     0          0          0          0
A42-22           745.50     0          0          0          0
A42-26           749.62     0          0          0          0
A42-28           748.96     0          0          0          0
A42-30           747.94     0          0          0          0
A42-32           749.81     0          0          0          0
A42-34           749.03     0          0          0          0
A42-36           749.40     0          0          0          0
A42-40           748.41     0          0          0          0
A42-42           747.94     0          0          0          0
A42-44           749.10     0          0          0          0
A42-46           750.46     0          0          0          0
A42-48           750.70     0          0          0          0
A42-50           751.30     0          0          0          0
A42-52           750.72     0          0          0          0
A42-54           750.93     0          0          0          0
A42-56           749.26     0          0          0          0
A42-58           749.42     0          0          0          0
A42-60           747.08     0          0          0          0

[STORAGE]
;;Name           Elev       MaxDepth   InitDepth  Shape      Curve/Params
;;-------------- ---------- ---------- ---------- ---------- ----------
O26A00           712.00     -4.00      0          FUNCTIONAL 1257.00 0          0
M59-00           737.00     -25.00     0          FUNCTIONAL 85.00 0          0
M33-02           718.00     0          0          FUNCTIONAL 50.00 0          0
T01-00           752.00     0          0          FUNCTIONAL 50.00 0          0
A62-00           714.90     -3.90      0          FUNCTIONAL 100.00 0          0
A42-00           738.40     -18.40     0          FUNCTIONAL 50.00 0          0
A42L-00          721.00     0          0          FUNCTIONAL 100.00 0          0
A42U-00          723.20     0          0          FUNCTIONAL 100.00 0          0
A35-VOR          723.50     0          0          FUNCTIONAL 100.00 0          0
A39-VOR          736.00     0          0          FUNCTIONAL 100.00 0          0
A43-00           733.00     -12.00     0          FUNCTIONAL 350.00 0          0
O26-CP2          726.50     0          0          FUNCTIONAL 100.00 0          0
O26-VOR          720.50     5.80       0          FUNCTIONAL 100.00 0          0
O25-VOR          720.00     0          0          FUNCTIONAL 100.00 0          0
O25-CP2          724.80     0          0          FUNCTIONAL 100.00 0          0
O04-04           713.00     0          0          FUNCTIONAL 100.00 0          0
M09-VOR          710.00     -5.50      0          FUNCTIONAL 100.00 0          0
M16-VOR          712.80     -2.30      0          FUNCTIONAL 100.00 0          0
M17-VOR          715.20     -5.20      0          FUNCTIONAL 100.00 0          0
M23-VOR          713.50     -4.50      0          FUNCTIONAL 100.00 0          0
M33-VOR          715.00     -2.50      0          FUNCTIONAL 100.00 0          0
A62-01           714.90     0          0          FUNCTIONAL 100.00 0          0
M01-VOR          710.00     -4.30      0          FUNCTIONAL 100.00 0          0
M02-VOR          710.00     -2.80      0          FUNCTIONAL 100.00 0          0
M03-VOR          710.00     -9.50      0          FUNCTIONAL 100.00 0          0
M04-VOR          710.40     -2.10      0          FUNCTIONAL 100.00 0          0
M05-VOR          710.00     -4.30      0          FUNCTIONAL 100.00 0          0
M11-VOR          710.00     -4.00      0          FUNCTIONAL 100.00 0          0
M12-VOR          710.00     -6.10      0          FUNCTIONAL 100.00 0          0
M13-VOR          710.00     -3.80      0          FUNCTIONAL 100.00 0          0
M14-VOR          710.00     -5.80      0          FUNCTIONAL 100.00 0          0
M15-VOR          710.00     -2.30      0          FUNCTIONAL 100.00 0          0
M18-VOR          717.00     -2.30      0          FUNCTIONAL 100.00 0          0
M19-VOR          713.40     -2.10      0          FUNCTIONAL 100.00 0          0
M20-VOR          710.00     -1.60      0          FUNCTIONAL 100.00 0          0
M21-VOR          715.20     -2.60      0          FUNCTIONAL 100.00 0          0
M22-VOR          714.30     -2.30      0          FUNCTIONAL 100.00 0          0
M26-VOR          710.00     -2.50      0          FUNCTIONAL 100.00 0          0
M27-VOR          711.80     -2.10      0          FUNCTIONAL 100.00 0          0
M29-VOR          715.00     -4.40      0          FUNCTIONAL 100.00 0          0
M31-VOR          744.50     -2.10      0          FUNCTIONAL 100.00 0          0
M47-VOR          713.00     -2.00      0          FUNCTIONAL 100.00 0          0
M48-VOR          741.40     -1.60      0          FUNCTIONAL 100.00 0          0
M50-VOR          725.60     -2.90      0          FUNCTIONAL 100.00 0          0
M51-VOR          721.00     -1.40      0          FUNCTIONAL 100.00 0          0
M52-VOR          723.70     -1.80      0          FUNCTIONAL 100.00 0          0
M53-VOR          714.90     -1.40      0          FUNCTIONAL 100.00 0          0
M54-VOR          719.30     -2.10      0          FUNCTIONAL 100.00 0          0
M55-VOR          725.60     -1.90      0          FUNCTIONAL 100.00 0          0
M56-VOR          723.50     -1.80      0          FUNCTIONAL 100.00 0          0
M57-VOR          724.90     -1.80      0          FUNCTIONAL 100.00 0          0
M58-VOR          721.50     -1.90      0          FUNCTIONAL 100.00 0          0
M61-VOR          725.70     -1.70      0          FUNCTIONAL 100.00 0          0
T01-VOR          737.40     -2.00      0          FUNCTIONAL 100.00 0          0
T02-VOR          770.70     -4.30      0          FUNCTIONAL 100.00 0          0
A01-VOR          710.50     -0.80      0          FUNCTIONAL 100.00 0          0
A02-VOR          710.00     -6.80      0          FUNCTIONAL 100.00 0          0
A03-VOR          710.00     -7.30      0          FUNCTIONAL 100.00 0          0
A04-VOR          710.00     -1.00      0          FUNCTIONAL 100.00 0          0
A06-VOR          710.00     -7.00      0          FUNCTIONAL 100.00 0          0
A07-VOR          710.00     -8.00      0          FUNCTIONAL 100.00 0          0
A08-VOR          710.00     -8.20      0          FUNCTIONAL 100.00 0          0
A09-VOR          710.00     -9.80      0          FUNCTIONAL 100.00 0          0
A10-VOR          710.00     -6.90      0          FUNCTIONAL 100.00 0          0
A11-VOR          710.00     -6.60      0          FUNCTIONAL 100.00 0          0
A12-VOR          710.00     -6.20      0          FUNCTIONAL 100.00 0          0
A13-VOR          710.00     -5.80      0          FUNCTIONAL 100.00 0          0
A14-VOR          710.00     -5.40      0          FUNCTIONAL 100.00 0          0
A15-VOR          710.00     0          0          FUNCTIONAL 100.00 0          0
A16-VOR          714.40     -2.30      0          FUNCTIONAL 100.00 0          0
A17-VOR          710.00     -3.20      0          FUNCTIONAL 100.00 0          0
A18-VOR          710.00     -1.00      0          FUNCTIONAL 100.00 0          0
A19-VOR          715.80     -6.40      0          FUNCTIONAL 100.00 0          0
A20-VOR          710.00     -9.60      0          FUNCTIONAL 100.00 0          0
A21-VOR          710.00     -1.20      0          FUNCTIONAL 100.00 0          0
A22-VOR          716.20     -8.30      0          FUNCTIONAL 100.00 0          0
A23-VOR          715.50     -5.90      0          FUNCTIONAL 100.00 0          0
A25-VOR          716.50     -1.40      0          FUNCTIONAL 100.00 0          0
A26-VOR          718.20     -0.60      0          FUNCTIONAL 100.00 0          0
A27-VOR          715.30     -0.80      0          FUNCTIONAL 100.00 0          0
A28-VOR          716.70     -0.80      0          FUNCTIONAL 100.00 0          0
A29-VOR          710.40     -0.90      0          FUNCTIONAL 100.00 0          0
A30-VOR          717.50     -1.00      0          FUNCTIONAL 100.00 0          0
A31-VOR          717.10     -0.90      0          FUNCTIONAL 100.00 0          0
A32-VOR          715.50     -1.60      0          FUNCTIONAL 100.00 0          0
A33-VOR          710.00     -0.10      0          FUNCTIONAL 100.00 0          0
A34-VOR          711.40     -1.10      0          FUNCTIONAL 100.00 0          0
A35-01           718.00     -1.10      0          FUNCTIONAL 100.00 0          0
A36-VOR          715.40     -0.80      0          FUNCTIONAL 100.00 0          0
A37-VOR          710.00     -1.50      0          FUNCTIONAL 100.00 0          0
A38-VOR          722.50     -0.80      0          FUNCTIONAL 100.00 0          0
A40-VOR          718.00     -0.80      0          FUNCTIONAL 100.00 0          0
A41-VOR          716.90     -1.30      0          FUNCTIONAL 100.00 0          0
A46-VOR          722.00     -18.60     0          FUNCTIONAL 100.00 0          0
A47-VOR          710.00     -9.00      0          FUNCTIONAL 100.00 0          0
A48-VOR          710.00     -6.50      0          FUNCTIONAL 100.00 0          0
A49-VOR          710.00     -1.70      0          FUNCTIONAL 100.00 0          0
A50-VOR          710.00     -2.90      0          FUNCTIONAL 100.00 0          0
A51-VOR          710.00     -4.90      0          FUNCTIONAL 100.00 0          0
A56-VOR          710.00     -3.80      0          FUNCTIONAL 100.00 0          0
A58-VOR          710.00     -7.70      0          FUNCTIONAL 100.00 0          0
A59-VOR          710.00     -1.80      0          FUNCTIONAL 100.00 0          0
A60-VOR          710.00     -5.40      0          FUNCTIONAL 100.00 0          0
A61-VOR          710.00     1.10       0          FUNCTIONAL 100.00 0          0
A62-VOR          711.60     -4.90      0          FUNCTIONAL 100.00 0          0
O27-VOR          710.00     -9.80      0          FUNCTIONAL 100.00 0          0
O28-VOR          710.00     -5.90      0          FUNCTIONAL 100.00 0          0
O29-VOR          710.00     -4.80      0          FUNCTIONAL 100.00 0          0
O30-VOR          710.00     -1.50      0          FUNCTIONAL 100.00 0          0
O31-VOR          716.30     -1.60      0          FUNCTIONAL 100.00 0          0
O32-VOR          710.00     -7.30      0          FUNCTIONAL 100.00 0          0
O33-VOR          710.00     -2.40      0          FUNCTIONAL 100.00 0          0
O34-VOR          710.00     -3.30      0          FUNCTIONAL 100.00 0          0
O35-VOR          714.50     -1.10      0          FUNCTIONAL 100.00 0          0
O36-VOR          710.00     -0.30      0          FUNCTIONAL 100.00 0          0
O37-VOR          710.00     -0.90      0          FUNCTIONAL 100.00 0          0
O38-VOR          710.00     -7.30      0          FUNCTIONAL 100.00 0          0
O39-VOR          710.00     -6.70      0          FUNCTIONAL 100.00 0          0
O40-VOR          710.00     -1.40      0          FUNCTIONAL 100.00 0          0
O41-VOR          710.00     -5.30      0          FUNCTIONAL 100.00 0          0
O17-VOR          782.90     -0.70      0          FUNCTIONAL 100.00 0          0
O18-VOR          717.60     -4.70      0          FUNCTIONAL 100.00 0          0
O19-VOR          724.50     -0.80      0          FUNCTIONAL 100.00 0          0
O20-VOR          800.50     -0.90      0          FUNCTIONAL 100.00 0          0
O21-VOR          729.40     -2.50      0          FUNCTIONAL 100.00 0          0
O22-VOR          726.40     -0.90      0          FUNCTIONAL 100.00 0          0
O23-VOR          731.20     -0.40      0          FUNCTIONAL 100.00 0          0
O24-VOR          832.70     -1.40      0          FUNCTIONAL 100.00 0          0
O-14-02          718.40     -6.40      0          FUNCTIONAL 100.00 0          0
O07-02           727.00     -28.00     0          FUNCTIONAL 100.00 0          0
O06-OR           710.00     0          0          FUNCTIONAL 100.00 0          0
A42A-00          747.97     0          0          FUNCTIONAL 350.00 0          0
A42A-28          748.34     -6.34      0          FUNCTIONAL 50.00 0          0
A42-02           739.70     -11.70     0          FUNCTIONAL 100.00 0          0

[CONDUITS]
;;Name           From             To               Length     Roughness  InOffset   OutOffset  InitFlow   MaxFlow
;;-------------- ---------------- ---------------- ---------- ---------- ---------- ---------- ---------- ----------
O26-FO           O26A00           O26-FO           500.00     0.0130     618.30     617.30     0          0
M01-00           M01-00           O43-04           1667.00    0.0123     629.10     628.20     0          0
M02-00           M02-00           M01-00           570.00     0.0122     629.60     629.27     0          0
M03-00           M03-00           M02-00           960.00     0.0121     630.10     629.60     0          0
M04-00           M04-00           M03-00           1127.00    0.0120     630.70     630.10     0          0
M05-00           M05-00           M04-00           753.00     0.0126     631.10     630.70     0          0
M09-00           M09-00           M05-00           1975.00    0.0122     632.00     631.10     0          0
M11-00           M11-00           M09-00           725.00     0.0120     632.70     632.17     0          0
M12-00           M12-00           M11-00           933.00     0.0120     633.40     632.70     0          0
M13-00           M13-00           M12-00           567.00     0.0120     633.80     633.40     0          0
M14-00           M14-00           M13-00           470.00     0.0120     634.10     633.80     0          0
M15-00           M15-00           M14-00           815.00     0.0120     634.70     634.10     0          0
M16-00           M16-00           M15-00           447.00     0.0119     635.00     634.70     0          0
M17-00           M17-00           M16-00           358.00     0.0119     635.30     635.00     0          0
M18-00           M18-00           M17-00           420.00     0.0119     635.60     635.30     0          0
M19-00           M19-00           M18-00           945.00     0.0130     643.10     639.35     0          0
M20-00           M20-00           M18-00           515.00     0.0119     636.30     635.60     0          0
M21-00           M21-00           M20-00           690.00     0.0117     636.90     636.30     0          0
M22-00           M22-00           M21-00           545.00     0.0117     637.50     636.90     0          0
M23-00           M23-00           M22-00           395.00     0.0116     637.90     637.50     0          0
M25-00           M25-00           M23-00           1815.00    0.0116     639.60     637.90     0          0
M24-00           M24-00           M25-VOR          200.00     0.0050     708.00     707.00     0          0
M26-00           M26-00           M25-00           270.00     0.0116     639.90     639.60     0          0
M27-00           M27-00           M26-00           1310.00    0.0116     641.20     639.90     0          0
M29-00           M29-00           M27-00           1500.00    0.0115     642.60     641.20     0          0
M30-00           M30-00           M29-00           348.00     0.0130     643.00     642.60     0          0
M46-00           M46-00           M30-00           10120.00   0.0123     656.20     643.67     0          0
M47-00           M47-00           M46-00           474.00     0.0122     656.80     656.20     0          0
M48-00           M48-00           M47-00           6000.00    0.0122     665.20     657.05     0          0
M49-02           M49-02           M48-00           1195.00    0.0122     666.80     665.20     0          0
M49-01           M49-01           M49-02           1030.00    0.0130     684.60     666.80     0          0
M49-00           M49-00           M49-01           900.00     0.0130     705.50     684.60     0          0
M50-00           M50-00           M49-02           1155.00    0.0122     668.00     666.80     0          0
M51-00           M51-00           M50-00           4073.00    0.0122     673.80     668.00     0          0
M52-00           M52-00           M51-00           690.00     0.0122     675.30     674.30     0          0
M53-00           M53-00           M52-00           633.00     0.0122     676.20     675.30     0          0
M54-00           M54-00           M53-00           323.00     0.0122     676.70     676.20     0          0
M55-00           M55-00           M54-00           713.00     0.0122     677.70     676.70     0          0
M56-00           M56-00           M55-00           485.00     0.0122     678.40     677.70     0          0
M57-00           M57-00           M56-00           458.00     0.0122     679.10     678.40     0          0
M58-00           M58-00           M57-00           810.00     0.0123     680.30     679.10     0          0
M59-00           M59-00           M58-00           870.00     0.0123     681.50     680.30     0          0
M61-00           M61-00           M59-00           1012.00    0.0122     682.70     681.50     0          0
M31-00           M31-00           M30-00           2300.00    0.0133     649.00     644.42     0          0
M31-02           M31-02           M31-00           2420.00    0.0134     654.30     649.00     0          0
M31-04           M31-04           M31-02           1000.00    0.0130     663.10     654.60     0          0
M33-00           M33-00           M31-04           705.00     0.0130     683.80     663.10     0          0
M33-02           M33-02           M33-00           561.00     0.0130     686.50     683.80     0          0
M33-04           M33-04           M33-02           200.00     0.0130     688.50     686.50     0          0
M34-00           M34-00           M33-04           200.00     0.0115     706.00     688.50     0          0
M41-00           M41-00           M31-02           6058.00    0.0136     672.20     653.80     0          0
M42A02           M42A02           M41SHFT          722.00     0.0130     682.00     679.90     0          0
M41SHFT          M41SHFT          M41-00           200.00     0.0114     679.90     672.20     0          0
M42A00           M42A00           M42A02           484.00     0.0130     686.90     682.00     0          0
T01-00           T01-00           M61-00           5014.00    0.0122     690.80     682.70     0          0
T02-00           T02-00           T01-00           2426.00    0.0122     705.40     690.80     0          0