;; SWMM5 .inp converted from XPSWMM .xp file
;; Generated by XPSWMM Card Reader
;; Source format: XP_CARD | Original title: Burri Creek Basin

[TITLE]
;;Project Title/Notes
Burri Creek Basin

[OPTIONS]
FLOW_UNITS           CFS
INFILTRATION         HORTON
FLOW_ROUTING         DYNWAVE
LINK_OFFSETS         DEPTH
MIN_SLOPE            0.0
ALLOW_PONDING        NO
SKIP_STEADY_STATE    NO
ROUTING_STEP         00:00:05
VARIABLE_STEP        0.75
INERTIAL_DAMPING     PARTIAL
NORMAL_FLOW_LIMITED  BOTH
MAX_TRIALS           50
HEAD_TOLERANCE       0.0033

[JUNCTIONS]
;;Name           Elev       MaxDepth   InitDepth  SurDepth   Aponded
;;-------------- ---------- ---------- ---------- ---------- ----------
1000             31.00      0          0          0          0
1010             67.30      0          0          0          0
1020             162.10     0          0          0          0
1030             242.30     0          0          0          0
1040             242.30     0          0          0          0
1050             222.90     0          0          0          0
1060             232.60     0          0          0          0
1065             285.00     0          0          0          0
1080             290.80     0          0          0          0
1090             330.70     0          0          0          0
1100             326.00     0          0          0          0
1005             65.80      0          0          0          0
1025             228.00     0          0          0          0
1045             163.00     0          0          0          0
1130             263.90     0          0          0          0
1140             265.50     0          0          0          0
1150             293.70     0          0          0          0
1062             243.80     0          0          0          0
1070             288.00     0          0          0          0
1075             293.50     0          0          0          0
1120             332.00     0          0          0          0
1110             331.50     0          0          0          0

[STORAGE]
;;Name           Elev       MaxDepth   InitDepth  Shape      Curve/Params
;;-------------- ---------- ---------- ---------- ---------- ----------
1064             258.00     -1.00      0          FUNCTIONAL 1320.00 0          0

[CONDUITS]
;;Name           From             To               Length     Roughness  InOffset   OutOffset  InitFlow   MaxFlow
;;-------------- ---------------- ---------------- ---------- ---------- ---------- ---------- ---------- ----------
BU2-A            1020             1010             900.00     0.0140     116.80     22.00      0          0
BU8-A            1090             1080             660.00     0          322.70     282.80     0          0
BU7-A            1065             1060             740.00     0          260.00     207.60     0          0
83rd             1100             1090             35.00      0.0130     322.90     322.70     0          0
H204main         1060             1050             255.00     0.0130     206.60     182.90     0          0
H204trib         1040             1030             90.00      0.0130     238.10     232.80     0          0
Sunny            1010             1000             110.00     0.0130     22.00      19.00      0          0
BU1-A            1005             1010             850.00     0          64.00      22.00      0          0
BU2-C            1030             1025             150.00     0          231.60     216.00     0          0
BU2-B            1025             1020             360.00     0          216.00     116.80     0          0
BU2-E            1050             1045             110.00     0          181.90     134.00     0          0
BU2-D            1045             1020             310.00     0          134.00     116.80     0          0
BU5-A            1040             1060             360.00     0          238.40     206.60     0          0
81stSD-BU4       1150             1140             610.00     0          291.70     263.50     0          0
81sttrib         1140             1130             68.00      0.0130     262.50     260.90     0          0
BU4-A            1130             1040             446.00     0          260.90     238.10     0          0
79thSD           1064             1062             780.00     0.0130     256.00     241.80     0          0
BU6-A            1062             1060             274.00     0          241.80     214.00     0          0
BU7-B            1070             1065             228.00     0          277.90     260.00     0          0
81st             81st-rd          1070             25.00      0.0130     282.80     279.70     0          0
81stSD           1075             1080             710.00     0          292.00     282.80     0          0
83rdSDBU9B       1110             1100             396.00     0          330.00     322.90     0          0
83rdSDBU9A       1120             1100             320.00     0          330.00     322.90     0          0

[XSECTIONS]
;;Link           Shape        Geom1      Geom2      Geom3      Geom4      Barrels
;;-------------- ------------ ---------- ---------- ---------- ---------- ----------
BU2-A            IRREGULAR    0          0          0          0          1
BU8-A            IRREGULAR    0          0          0          0          1
BU7-A            IRREGULAR    0          0          0          0          1
83rd             CIRCULAR     2.00       0          0          0          1
H204main         CIRCULAR     3.00       0          0          0          1
H204trib         CIRCULAR     1.50       0          0          0          1
Sunny            CIRCULAR     3.50       0          0          0          1
BU1-A            IRREGULAR    0          0          0          0          1
BU2-C            IRREGULAR    0          0          0          0          1
BU2-B            IRREGULAR    0          0          0          0          1
BU2-E            IRREGULAR    0          0          0          0          1
BU2-D            IRREGULAR    0          0          0          0          1
BU5-A            IRREGULAR    0          0          0          0          1
81stSD-BU4       IRREGULAR    0          0          0          0          1
81sttrib         CIRCULAR     2.00       0          0          0          1
BU4-A            IRREGULAR    0          0          0          0          1
79thSD           CIRCULAR     1.00       0          0          0          1
BU6-A            IRREGULAR    0          0          0          0          1
BU7-B            IRREGULAR    0          0          0          0          1
81st             CIRCULAR     1.00       0          0          0          1
81stSD           IRREGULAR    0          0          0          0          1
83rdSDBU9B       IRREGULAR    0          0          0          0          1
83rdSDBU9A       IRREGULAR    0          0          0          0          1

[LOSSES]
;;Link           Inlet      Outlet     Average    Flap Gate
;;-------------- ---------- ---------- ---------- ----------
BU2-A            0          0          0          NO
BU8-A            0          0          0          NO
BU7-A            0          0          0          NO
83rd             0          0          0          NO
H204main         0          0          0          NO
H204trib         0          0          0          NO
Sunny            0          0          0          NO
BU1-A            0          0          0          NO
BU2-C            0          0          0          NO
BU2-B            0          0          0          NO
BU2-E            0          0          0          NO
BU2-D            0          0          0          NO
BU5-A            0          0          0          NO
81stSD-BU4       0          0          0          NO
81sttrib         0          0          0          NO
BU4-A            0          0          0          NO
79thSD           0          0          0          NO
BU6-A            0          0          0          NO
BU7-B            0          0          0          NO
81st             0          0          0          NO
81stSD           0          0          0          NO
83rdSDBU9B       0          0          0          NO
83rdSDBU9A       0          0          0          NO

[COORDINATES]
;;Node           X-Coord            Y-Coord
;;-------------- ------------------ ------------------
1000             6.87               25.44             
1010             13.07              38.39             
1020             61.28              97.90             
1030             63.28              140.35            
1040             67.83              161.86            
1050             94.35              106.18            
1060             94.34              129.51            
1065             127.16             183.63            
1080             130.08             216.44            
1090             130.36             271.52            
1100             130.78             284.90            
1005             72.74              6.70              
1025             59.15              124.82            
1045             83.62              105.20            
1130             39.08              189.94            
1140             37.62              212.48            
1150             76.72              213.32            
1062             118.75             113.13            
1064             186.50             113.76            
1070             129.41             201.83            
1075             187.75             217.90            
1120             104.11             285.10            
1110             165.38             284.68            

[MAP]
DIMENSIONS 6.87 6.70 187.75 285.10
Units      None

[REPORT]
INPUT            YES
SUBCATCHMENTS    ALL
NODES            ALL
LINKS            ALL



