;; SWMM5 .inp converted from XPSWMM .xp file
;; Generated by XPSWMM Card Reader
;; Source format: XP_CARD | Original title: Analysis of Mission Road (north of I10)

[TITLE]
;;Project Title/Notes
Analysis of Mission Road (north of I10)

[OPTIONS]
FLOW_UNITS           CFS
INFILTRATION         HORTON
FLOW_ROUTING         DYNWAVE
LINK_OFFSETS         DEPTH
MIN_SLOPE            0.0
ALLOW_PONDING        NO
SKIP_STEADY_STATE    NO
ROUTING_STEP         00:00:05
VARIABLE_STEP        0.75
INERTIAL_DAMPING     PARTIAL
NORMAL_FLOW_LIMITED  BOTH
MAX_TRIALS           30
HEAD_TOLERANCE       0.0033

[JUNCTIONS]
;;Name           Elev       MaxDepth   InitDepth  SurDepth   Aponded
;;-------------- ---------- ---------- ---------- ---------- ----------
S-1              98.50      0          0          0          0
S-2              98.50      0          0          0          0
S-3              96.35      0          0          0          0
S-4              96.35      0          0          0          0
PondA            94.60      0          0          0          0
S-6              94.60      0          0          0          0
S-7              93.00      0          0          0          0
S-8              93.00      0          0          0          0
S-10             94.30      0          0          0          0
S-11             94.25      0          0          0          0
S-12             99.20      0          0          0          0
S-13             97.20      0          0          0          0
S-14             98.75      0          0          0          0
S-15             99.00      0          0          0          0
S-16             99.00      0          0          0          0
S-17             101.70     0          0          0          0
S-18             101.50     0          0          0          0
S-19             104.60     0          0          0          0
S-20             104.60     0          0          0          0
S-21             110.50     0          0          0          0
S-22             110.50     0          0          0          0
S-23             114.70     0          0          0          0
S-24             114.70     0          0          0          0
S-20A            102.50     0          0          0          0
S-26             117.40     0          0          0          0
S-27             117.20     0          0          0          0
S-28             117.20     0          0          0          0
S-29             116.00     0          0          0          0
S-30             116.00     0          0          0          0
S-31             112.70     0          0          0          0
S-32             112.70     0          0          0          0
S-33             110.70     0          0          0          0
S-34             110.70     0          0          0          0
S-32A            111.20     0          0          0          0
S-34A            109.50     0          0          0          0
S-35             110.20     0          0          0          0
S-36             110.20     0          0          0          0
S-34B            109.55     0          0          0          0
S-36A            109.30     0          0          0          0
S-36B            108.90     0          0          0          0
S-37             109.50     0          0          0          0
S-38             109.55     0          0          0          0
S--39            108.90     0          0          0          0
S-40             108.90     0          0          0          0
S-38A            107.00     0          0          0          0
S-41             108.15     0          0          0          0
S-42             108.00     0          0          0          0
BOX-C            108.20     0          0          0          0
JNT-1            108.00     0          0          0          0
OTFL-2           108.00     0          0          0          0
S-45             109.85     0          0          0          0
S-46             109.90     0          0          0          0
S-47             112.30     0          0          0          0
S-48             112.25     0          0          0          0
S-49             114.30     0          0          0          0
S-50             114.25     0          0          0          0
S-51             116.00     0          0          0          0
S-52             116.05     0          0          0          0
S-53             118.50     0          0          0          0
S-54             118.50     0          0          0          0
S-57             122.90     0          0          0          0
S-58             133.60     0          0          0          0
S-59             141.05     0          0          0          0
S-60             141.00     0          0          0          0
S-61             146.00     0          0          0          0
S-62             145.95     0          0          0          0
S-63             150.10     0          0          0          0
S-64             150.10     0          0          0          0
S-65             156.85     0          0          0          0
S-66             156.90     0          0          0          0
S-67             164.10     0          0          0          0
S-68             164.05     0          0          0          0
S-69             170.55     0          0          0          0
S-70             170.50     0          0          0          0
S-71             175.10     0          0          0          0
S-72             175.10     0          0          0          0
S-73             172.30     0          0          0          0
S-74             172.20     0          0          0          0
S-16A            99.50      0          0          0          0
S-16B            99.50      0          0          0          0
S-16C            98.60      0          0          0          0
S-16D            98.55      0          0          0          0
S-16F            103.50     0          0          0          0
S-16G            103.70     0          0          0          0
S-16E            101.10     0          0          0          0
S-1A             98.03      0          0          0          0
S-38B            105.00     0          0          0          0
DITCH            108.00     0          0          0          0
S-55             125.70     0          0          0          0
S-56             125.70     0          0          0          0
Railroad         108.00     0          0          0          0
North            108.00     0          0          0          0
South            105.00     0          0          0          0

[STORAGE]
;;Name           Elev       MaxDepth   InitDepth  Shape      Curve/Params
;;-------------- ---------- ---------- ---------- ---------- ----------
POND             108.00     0          0          FUNCTIONAL 0 0          0

[CONDUITS]
;;Name           From             To               Length     Roughness  InOffset   OutOffset  InitFlow   MaxFlow
;;-------------- ---------------- ---------------- ---------- ---------- ---------- ---------- ---------- ----------
18"RCP           S-1              S-2              50.00      0.0140     95.00      94.50      0          0
24"RCP           S-2              S-4              239.00     0.0140     94.50      90.00      0          0
30"RCP           S-4              S-3              50.00      0.0140     91.00      90.52      0          0
29"45"RCP        S-6              PondA            50.00      0.0140     85.25      85.00      0          0
36"RCP           S-3              PondA            285.00     0.0140     90.52      85.20      0          0
43-68A           S-11             S-7              155.00     0.0140     87.31      86.11      0          0
29-45B           S-10             S-8              170.00     0.0140     88.67      86.94      0          0
29-45A           S-8              S-6              85.00      0.0140     86.94      85.25      0          0
29-45C           S-14             S-10             205.00     0.0140     90.91      88.67      0          0
43-68B           S-13             S-11             150.00     0.0140     90.73      87.31      0          0
43-68C           S-12             S-13             120.00     0.0140     91.15      90.73      0          0
43-68D           S-16             S-12             238.00     0.0140     94.50      91.15      0          0
18               S-15             S-16             45.00      0.0140     95.13      92.46      0          0
18               S-17             S-18             50.00      0.0140     97.50      97.00      0          0
38-60            S-18             S-16             285.00     0.0140     97.00      92.00      0          0
30               S-19             S-20             52.00      0.0140     99.58      98.00      0          0
34-53            S-20             S-18             237.00     0.0140     98.00      95.00      0          0
18               S-22             S-21             50.00      0.0140     107.09     106.47     0          0
255-18RCP        S-21             S-19             255.00     0.0140     106.47     99.58      0          0
18               S-24             S-23             50.00      0.0140     111.25     110.75     0          0
225-18RCP        S-23             S-21             225.00     0.0140     110.75     106.47     0          0
258-18RCP        S-26             S-24             256.00     0.0140     113.72     111.25     0          0
18-RCP           S-27             S-28             50.00      0.0140     113.35     113.00     0          0
18-RCP-2         S-28             S-30             195.00     0.0140     113.00     111.57     0          0
18-RCP-4         S-30             S-32             236.00     0.0140     111.57     108.23     0          0
18-RCP-6         S-32             S-34             198.00     0.0140     108.23     106.35     0          0
18-RCP-1         S-29             S-30             52.00      0.0140     112.19     111.57     0          0
18-RCP-3         S-31             S-32             52.00      0.0140     108.85     108.23     0          0
18-RCP-5         S-33             S-34             52.00      0.0140     106.97     106.35     0          0
18-A             S-34             S-36             205.00     0.0140     106.35     105.60     0          0
18-RCP-8         S-35             S-36             50.00      0.0140     106.56     105.60     0          0
24               S-34B            S-36A            57.00      0.0140     106.46     105.14     0          0
24               S-36A            S-36B            87.00      0.0140     105.14     104.13     0          0
18-B             S-36             S-38             216.00     0.0140     105.60     104.53     0          0
24               S-36B            S-38A            97.00      0.0140     104.13     103.25     0          0
24-38-B          S-38             S-37             46.00      0.0140     104.53     104.35     0          0
24X38-A          S-37             S--39            195.00     0.0140     104.35     103.60     0          0
18-C             S-40             S--39            47.00      0.0140     105.50     103.60     0          0
24X38-C          S--39            S-41             270.00     0.0140     103.60     102.00     0          0
24-A             S-42             S-41             45.00      0.0140     104.00     103.50     0          0
BOX-8X5          JNT-1            OTFL-2           125.00     0.0140     101.00     101.00     0          0
18-F             S-47             S-48             50.00      0.0140     108.19     107.69     0          0
30-B             S-48             S-46             290.00     0.0140     105.43     103.00     0          0
30-A             S-46             OTFL-2           220.00     0.0140     103.00     101.00     0          0
18-E             S-45             S-46             50.00      0.0140     105.77     105.00     0          0
18-G             S-49             S-50             50.00      0.0140     110.00     109.50     0          0
30-C             S-50             S-48             233.00     0.0140     107.80     105.43     0          0
18-H             S-51             S-52             50.00      0.0140     111.50     111.00     0          0
30-D             S-52             S-50             205.00     0.0140     109.87     107.80     0          0
18-I             S-53             S-54             50.00      0.0140     113.50     113.00     0          0
30-E             S-54             S-52             195.00     0.0140     112.34     109.87     0          0
133              S-58             S-56             272.00     0.0140     129.00     119.00     0          0
134              S-56             S-54             209.00     0.0140     121.00     112.34     0          0
140              S-59             S-60             50.00      0.0140     137.00     136.50     0          0
141              S-60             S-58             220.00     0.0140     136.50     129.00     0          0
142              S-61             S-62             50.00      0.0140     142.00     141.50     0          0
143              S-62             S-60             150.00     0.0140     141.50     136.50     0          0
150              S-67             S-68             50.00      0.0140     160.00     159.50     0          0
151              S-68             S-66             169.00     0.0140     159.50     152.38     0          0
152              S-66             S-64             169.00     0.0140     152.38     146.50     0          0
153              S-64             S-62             147.00     0.0140     146.50     141.50     0          0
154              S-63             S-64             50.00      0.0140     147.00     146.50     0          0
155              S-65             S-66             50.00      0.0140     153.00     152.38     0          0
162              S-73             S-74             50.00      0.0140     168.28     167.50     0          0
163              S-74             S-72             310.00     0.0140     167.50     164.36     0          0
164              S-72             S-70             147.00     0.0140     164.36     162.11     0          0
165              S-70             S-68             147.00     0.0140     162.11     159.50     0          0
166              S-69             S-70             50.00      0.0140     166.71     166.00     0          0
167              S-71             S-72             50.00      0.0140     170.00     169.50     0          0
18-RCP1          S-16A            S-16B            72.00      0.0140     96.77      95.81      0          0
18-RCP2          S-16B            S-16C            85.00      0.0140     95.81      94.90      0          0
18-RCP3          S-16D            S-16C            55.00      0.0140     95.62      94.90      0          0
18-RCP4          S-16C            S-16             50.00      0.0140     95.81      95.00      0          0
18-RCP5          S-16E            S-16F            67.00      0.0140     98.11      97.41      0          0
18-RCP6          S-16F            S-16G            70.00      0.0140     97.41      96.50      0          0
18-RCP7          S-16G            S-18             100.00     0.0140     96.50      95.00      0          0
24-RCP1          S-20A            S-20             15.00      0.0140     98.20      98.00      0          0
18-RCPA          S-1A             S-1              91.00      0.0140     95.43      95.00      0          0
185              S-38A            S-38             50.00      0.0140     104.70     104.53     0          0
NE-18            S-32A            S-32             50.00      0.0140     108.35     108.23     0          0
NE-24            S-34A            S-34             50.00      0.0140     106.50     106.35     0          0
P24              S-38B            BOX-C            153.00     0.0140     102.75     101.25     0          0
BOC-2X3          BOX-C            DITCH            85.00      0.0140     101.25     100.50     0          0
s41/ditch        S-41             DITCH            100.00     0.0140     102.00     101.00     0          0
196              S-7              PondA            90.00      0.0140     86.11      85.00      0          0
199              S-57             S-56             50.00      0.0140     119.50     119.00     0          0
200              S-55             S-56             50.00      0.0140     121.50     121.00     0          0
202              OTFL-2           POND             50.00      0.0140     99.00      99.00      0          0
203              OTFL-2           Railroad         333.00     0.0240     101.00     98.00      0          0
205              DITCH            Railroad         200.00     0.0200     100.00     98.00      0          0
207              Railroad         North            133.00     0.0140     98.00      98.00      0          0
209              PondA            South            133.00     0.0250     88.50      88.00      0          0
210              S-28             S-26             0          0          0          0          0          0

[XSECTIONS]
;;Link           Shape        Geom1      Geom2      Geom3      Geom4      Barrels
;;-------------- ------------ ---------- ---------- ---------- ---------- ----------
18"RCP           CIRCULAR     1.25       0          0          0          1
24"RCP           CIRCULAR     2.00       0          0          0          1
30"RCP           CIRCULAR     2.50       0          0          0          1
29"45"RCP        RECT_CLOSED  5.00       6.00       0          0          1
36"RCP           CIRCULAR     3.00       0          0          0          1
43-68A           CIRCULAR     4.50       5.60       0          0          1
29-45B           CIRCULAR     3.00       3.75       0          0          1
29-45A           CIRCULAR     3.00       3.75       0          0          1
29-45C           CIRCULAR     3.00       3.75       0          0          1
43-68B           CIRCULAR     4.50       5.60       0          0          1
43-68C           CIRCULAR     4.50       5.60       0          0          1
43-68D           CIRCULAR     4.50       5.60       0          0          1
18               CIRCULAR     1.50       0          0          0          1
18               CIRCULAR     1.50       0          0          0          1
38-60            CIRCULAR     4.00       5.00       0          0          1
30               CIRCULAR     2.50       0          0          0          1
34-53            CIRCULAR     3.50       4.40       0          0          1
18               CIRCULAR     1.50       0          0          0          1
255-18RCP        CIRCULAR     1.50       0          0          0          1
18               CIRCULAR     1.50       0          0          0          1
225-18RCP        CIRCULAR     1.50       0          0          0          1
258-18RCP        CIRCULAR     1.50       0          0          0          1
18-RCP           CIRCULAR     1.50       0          0          0          1
18-RCP-2         CIRCULAR     1.50       0          0          0          1
18-RCP-4         CIRCULAR     1.50       0          0          0          1
18-RCP-6         CIRCULAR     1.50       0          0          0          1
18-RCP-1         CIRCULAR     1.50       0          0          0          1
18-RCP-3         CIRCULAR     1.50       0          0          0          1
18-RCP-5         CIRCULAR     1.50       0          0          0          1
18-A             CIRCULAR     2.00       0          0          0          1
18-RCP-8         CIRCULAR     1.50       0          0          0          1
24               CIRCULAR     2.00       0          0          0          1
24               CIRCULAR     2.00       0          0          0          1
18-B             CIRCULAR     2.00       0          0          0          1
24               CIRCULAR     2.00       0          0          0          1
24-38-B          CIRCULAR     2.50       3.16       0          0          1
24X38-A          CIRCULAR     2.50       3.16       0          0          1
18-C             CIRCULAR     1.50       0          0          0          1
24X38-C          CIRCULAR     2.50       3.16       0          0          1
24-A             CIRCULAR     2.00       0          0          0          1
BOX-8X5          RECT_CLOSED  5.00       8.00       0          0          1
18-F             CIRCULAR     1.50       0          0          0          1
30-B             CIRCULAR     2.50       0          0          0          1
30-A             CIRCULAR     3.00       0          0          0          1
18-E             CIRCULAR     1.50       0          0          0          1
18-G             CIRCULAR     1.50       0          0          0          1
30-C             CIRCULAR     2.50       0          0          0          1
18-H             CIRCULAR     1.50       0          0          0          1
30-D             CIRCULAR     2.50       0          0          0          1
18-I             CIRCULAR     1.50       0          0          0          1
30-E             CIRCULAR     2.50       0          0          0          1
133              CIRCULAR     2.00       0          0          0          1
134              CIRCULAR     2.50       0          0          0          1
140              CIRCULAR     1.50       0          0          0          1
141              CIRCULAR     2.00       0          0          0          1
142              CIRCULAR     1.50       0          0          0          1
143              CIRCULAR     2.00       0          0          0          1
150              CIRCULAR     1.50       0          0          0          1
151              CIRCULAR     2.00       0          0          0          1
152              CIRCULAR     2.00       0          0          0          1
153              CIRCULAR     2.00       0          0          0          1
154              CIRCULAR     1.50       0          0          0          1
155              CIRCULAR     1.50       0          0          0          1
162              CIRCULAR     1.50       0          0          0          1
163              CIRCULAR     1.50       0          0          0          1
164              CIRCULAR     2.00       0          0          0          1
165              CIRCULAR     2.00       0          0          0          1
166              CIRCULAR     1.50       0          0          0          1
167              CIRCULAR     1.50       0          0          0          1
18-RCP1          CIRCULAR     1.50       0          0          0          1
18-RCP2          CIRCULAR     1.80       0          0          0          1
18-RCP3          CIRCULAR     1.50       0          0          0          1
18-RCP4          CIRCULAR     1.50       0          0          0          1
18-RCP5          CIRCULAR     1.50       0          0          0          1
18-RCP6          CIRCULAR     1.50       0          0          0          1
18-RCP7          CIRCULAR     1.50       0          0          0          1
24-RCP1          CIRCULAR     2.00       0          0          0          1
18-RCPA          CIRCULAR     1.50       0          0          0          1
185              CIRCULAR     2.00       0          0          0          1
NE-18            CIRCULAR     1.50       0          0          0          1
NE-24            CIRCULAR     1.50       0          0          0          1
P24              CIRCULAR     2.00       0          0          0          1
BOC-2X3          RECT_CLOSED  4.00       10.00      0          0          1
s41/ditch        CIRCULAR     3.00       0          0          0          1
196              CIRCULAR     4.50       0          0          0          1
199              CIRCULAR     2.00       0          0          0          1
200              CIRCULAR     1.50       0          0          0          1
202              CIRCULAR     3.00       0          0          0          1
203              TRAPEZOIDAL  3.00       20.00      0          0          1
205              TRAPEZOIDAL  5.00       10.00      0          0          1
207              TRAPEZOIDAL  0.16       20.00      0          0          1
209              TRAPEZOIDAL  4.00       25.00      0          0          1
210              CIRCULAR     0          0          0          0          1

[LOSSES]
;;Link           Inlet      Outlet     Average    Flap Gate
;;-------------- ---------- ---------- ---------- ----------
18"RCP           0          0          0          NO
24"RCP           0          0          0          NO
30"RCP           0          0          0          NO
29"45"RCP        0          0          0          NO
36"RCP           0          0          0          NO
43-68A           0          0          0          NO
29-45B           0          0          0          NO
29-45A           0          0          0          NO
29-45C           0          0          0          NO
43-68B           0          0          0          NO
43-68C           0          0          0          NO
43-68D           0          0          0          NO
18               0          0          0          NO
18               0          0          0          NO
38-60            0          0          0          NO
30               0          0          0          NO
34-53            0          0          0          NO
18               0          0          0          NO
255-18RCP        0          0          0          NO
18               0          0          0          NO
225-18RCP        0          0          0          NO
258-18RCP        0          0          0          NO
18-RCP           0          0          0          NO
18-RCP-2         0          0          0          NO
18-RCP-4         0          0          0          NO
18-RCP-6         0          0          0          NO
18-RCP-1         0          0          0          NO
18-RCP-3         0          0          0          NO
18-RCP-5         0          0          0          NO
18-A             0          0          0          NO
18-RCP-8         0          0          0          NO
24               0          0          0          NO
24               0          0          0          NO
18-B             0          0          0          NO
24               0          0          0          NO
24-38-B          0          0          0          NO
24X38-A          0          0          0          NO
18-C             0          0          0          NO
24X38-C          0          0          0          NO
24-A             0          0          0          NO
BOX-8X5          0          0          0          NO
18-F             0          0          0          NO
30-B             0          0          0          NO
30-A             0          0          0          NO
18-E             0          0          0          NO
18-G             0          0          0          NO
30-C             0          0          0          NO
18-H             0          0          0          NO
30-D             0          0          0          NO
18-I             0          0          0          NO
30-E             0          0          0          NO
133              0          0          0          NO
134              0          0          0          NO
140              0          0          0          NO
141              0          0          0          NO
142              0          0          0          NO
143              0          0          0          NO
150              0          0          0          NO
151              0          0          0          NO
152              0          0          0          NO
153              0          0          0          NO
154              0          0          0          NO
155              0          0          0          NO
162              0          0          0          NO
163              0          0          0          NO
164              0          0          0          NO
165              0          0          0          NO
166              0          0          0          NO
167              0          0          0          NO
18-RCP1          0          0          0          NO
18-RCP2          0          0          0          NO
18-RCP3          0          0          0          NO
18-RCP4          0          0          0          NO
18-RCP5          0          0          0          NO
18-RCP6          0          0          0          NO
18-RCP7          0          0          0          NO
24-RCP1          0          0          0          NO
18-RCPA          0          0          0          NO
185              0          0          0          NO
NE-18            0          0          0          NO
NE-24            0          0          0          NO
P24              0          0          0          NO
BOC-2X3          0          0          0          NO
s41/ditch        0          0          0          NO
196              0          0          0          NO
199              0          0          0          NO
200              0          0          0          NO
202              0          0          0          NO
203              0          0          0          NO
205              0          0          0          NO
207              0          0          0          NO
209              0          0          0          NO
210              0          0          0          NO

[COORDINATES]
;;Node           X-Coord            Y-Coord
;;-------------- ------------------ ------------------
S-1              -150.07            -2707.07          
S-2              17.38              -2708.12          
S-3              -141.87            -2579.63          
S-4              18.29              -2580.33          
PondA            -197.95            -2422.95          
S-6              89.90              -2423.22          
S-7              -106.21            -2265.98          
S-8              91.99              -2253.69          