;; SWMM5 .inp converted from XPSWMM .xp file
;; Generated by XPSWMM Card Reader
;; Source format: XP_CARD | Original title: Wiltse Flats Stormwater Analysis

[TITLE]
;;Project Title/Notes
Wiltse Flats Stormwater Analysis

[OPTIONS]
FLOW_UNITS           CMS
INFILTRATION         HORTON
FLOW_ROUTING         DYNWAVE
LINK_OFFSETS         DEPTH
MIN_SLOPE            0.0
ALLOW_PONDING        NO
SKIP_STEADY_STATE    NO
ROUTING_STEP         00:00:15
VARIABLE_STEP        0.75
INERTIAL_DAMPING     PARTIAL
NORMAL_FLOW_LIMITED  BOTH
MAX_TRIALS           50

[JUNCTIONS]
;;Name           Elev       MaxDepth   InitDepth  SurDepth   Aponded
;;-------------- ---------- ---------- ---------- ---------- ----------
11               419.90     0          0          0          0
12               419.40     0          0          0          0
17               422.00     0          0          0          0
18               423.45     0          0          0          0
20               423.60     0          0          0          0
50               423.80     0          0          0          0
52               419.30     0          0          0          0
55               410.20     0          0          0          0
57               404.10     0          0          0          0
59               401.20     0          0          0          0
60               402.00     0          0          0          0
61               400.00     0          0          0          0
66               401.50     0          0          0          0
67               401.20     0          0          0          0
68               399.15     0          0          0          0

[CONDUITS]
;;Name           From             To               Length     Roughness  InOffset   OutOffset  InitFlow   MaxFlow
;;-------------- ---------------- ---------------- ---------- ---------- ---------- ---------- ---------- ----------
15               11               12               20.00      0.0130     417.90     417.80     0          0
19               12               17               61.00      0.0130     417.80     417.69     0          0
28               17               18               52.50      0.0130     417.69     417.60     0          0
30               20               18               12.50      0.0130     417.66     417.60     0          0
51               18               50               125.96     0.0130     417.60     417.50     0          0
54               50               52               115.00     0.0130     417.50     417.30     0          0
56               52               55               153.00     0.0130     417.30     408.40     0          0
58               55               57               134.50     0.0130     408.40     402.40     0          0
62               57               59               89.28      0.0130     401.80     399.40     0          0
63               59               60               81.50      0.0130     399.30     398.90     0          0
64               60               61               131.00     0.0130     398.90     398.85     0          0
69               67               68               12.00      0.0130     398.43     398.40     0          0
71               66               67               70.79      0.0130     398.70     398.43     0          0
72               61               66               106.78     0.0130     398.85     398.57     0          0

[XSECTIONS]
;;Link           Shape        Geom1      Geom2      Geom3      Geom4      Barrels
;;-------------- ------------ ---------- ---------- ---------- ---------- ----------
15               CIRCULAR     0.45       0          0          0          1
19               CIRCULAR     0.75       0          0          0          1
28               CIRCULAR     0.75       0          0          0          1
30               CIRCULAR     0.60       0          0          0          1
51               CIRCULAR     0.75       0          0          0          1
54               CIRCULAR     0.75       0          0          0          1
56               CIRCULAR     0.60       0          0          0          1
58               CIRCULAR     0.60       0          0          0          1
62               CIRCULAR     0.60       0          0          0          1
63               CIRCULAR     0.60       0          0          0          1
64               CIRCULAR     0.75       0          0          0          1
69               CIRCULAR     0.75       0          0          0          1
71               CIRCULAR     0.75       0          0          0          1
72               CIRCULAR     0.75       0          0          0          1

[LOSSES]
;;Link           Inlet      Outlet     Average    Flap Gate
;;-------------- ---------- ---------- ---------- ----------
15               0          0          0          NO
19               0          0          0          NO
28               0          0          0          NO
30               0          0          0          NO
51               0          0          0          NO
54               0          0          0          NO
56               0          0          0          NO
58               0          0          0          NO
62               0          0          0          NO
63               0          0          0          NO
64               0          0          0          NO
69               0          0          0          NO
71               0          0          0          NO
72               0          0          0          NO

[COORDINATES]
;;Node           X-Coord            Y-Coord
;;-------------- ------------------ ------------------
11               -5482430.60        313737.02         
12               -5482441.60        313725.78         
17               -5482499.74        313729.17         
18               -5482550.67        313732.78         
20               -5482550.24        313745.72         
50               -5482665.94        313768.50         
52               -5482748.64        313863.73         
55               -5482869.91        313941.40         
57               -5483011.42        313983.97         
59               -5483073.05        313958.90         
60               -5483155.75        313923.47         
61               -5483263.64        313845.37         
66               -5483360.65        313851.45         
67               -5483437.21        313856.00         
68               -5483443.15        313862.33         

[MAP]
DIMENSIONS -5483443.15 313725.78 -5482430.60 313983.97
Units      None

[REPORT]
INPUT            YES
SUBCATCHMENTS    ALL
NODES            ALL
LINKS            ALL



