;; SWMM5 .inp converted from XPSWMM .xp file
;; Generated by XPSWMM Card Reader
;; Source format: XP_CARD | Original title: Welland Sewers

[TITLE]
;;Project Title/Notes
Welland Sewers

[OPTIONS]
FLOW_UNITS           CMS
INFILTRATION         HORTON
FLOW_ROUTING         DYNWAVE
LINK_OFFSETS         DEPTH
MIN_SLOPE            0.0
ALLOW_PONDING        NO
SKIP_STEADY_STATE    NO
ROUTING_STEP         00:00:300
VARIABLE_STEP        0.75
INERTIAL_DAMPING     PARTIAL
NORMAL_FLOW_LIMITED  BOTH

[JUNCTIONS]
;;Name           Elev       MaxDepth   InitDepth  SurDepth   Aponded
;;-------------- ---------- ---------- ---------- ---------- ----------
0                177.00     0          0          0          0
0                175.00     0          0          0          0
0                181.70     0          0          0          0
0                180.00     0          0          0          0
0                179.00     0          0          0          0
0                177.47     0          0          0          0
0                179.56     0          0          0          0
0                178.74     0          0          0          0
0                180.00     0          0          0          0
0                175.00     0          0          0          0
0                178.22     0          0          0          0
0                178.20     0          0          0          0
0                177.44     0          0          0          0
0                178.80     0          0          0          0
0                178.29     0          0          0          0
0                177.82     0          0          0          0
0                173.75     0          0          0          0
0                182.08     0          0          0          0
0                173.50     0          0          0          0
0                181.70     0          0          0          0
0                181.40     0          0          0          0
0                181.96     0          0          0          0
0                182.08     0          0          0          0
0                182.23     0          0          0          0
0                181.73     0          0          0          0
0                182.50     0          0          0          0
0                180.00     0          0          0          0
0                0          0          0          0          0

[STORAGE]
;;Name           Elev       MaxDepth   InitDepth  Shape      Curve/Params
;;-------------- ---------- ---------- ---------- ---------- ----------
0                177.29     0          0.45       FUNCTIONAL 0 0          0

[CONDUITS]
;;Name           From             To               Length     Roughness  InOffset   OutOffset  InitFlow   MaxFlow
;;-------------- ---------------- ---------------- ---------- ---------- ---------- ---------- ---------- ----------
211              0                0                191.60     0.0130     172.40     172.38     0          0
238              0                0                50.00      0.0130     172.06     171.62     0          0
210              0                0                166.20     0.0130     175.19     174.66     0          0
217              0                0                735.00     0.0130     174.69     171.84     0          0
202              0                0                1013.90    0.0130     171.15     168.86     0          0
220              0                0                395.90     0.0130     168.86     168.55     0          0
208              0                0                103.10     0.0130     172.00     171.92     0          0
330              0                0                128.90     0.0130     161.32     161.06     0          0
268              0                0                195.40     0.0130     173.35     173.00     0          0
240              0                0                95.30      0.0130     173.07     172.68     0          0
252              0                0                717.00     0.0130     174.92     173.26     0          0
239              0                0                147.50     0.0130     173.75     173.35     0          0
270              0                0                207.00     0.0130     172.58     171.95     0          0
271              0                0                349.50     0.0130     171.95     171.15     0          0
276              0                0                10.00      0.0130     168.75     168.55     0          0
282              0                0                1.00       0.0130     168.55     168.50     0          0
206              0                0                19.00      0.0130     177.80     177.75     0          0
288              0                0                99.70      0.0130     177.70     177.50     0          0
290              0                0                112.20     0.0130     177.22     176.96     0          0
300              0                0                131.60     0.0130     175.68     175.38     0          0
292              0                0                216.10     0.0130     176.96     176.58     0          0
296              0                0                204.50     0.0130     176.58     175.83     0          0
302              0                0                267.10     0.0130     175.33     174.91     0          0
278              0                0                1413.70    0.0130     174.16     172.50     0          0
317              0                0                707.30     0.0130     172.50     171.95     0          0
204              0                0                300.00     0.0130     179.00     178.00     0          0
217              0                0                170.00     0.0130     174.10     172.82     0          0
208              0                0                19.82      0.0130     171.61     171.56     0          0
238              0                0                50.00      0.0130     175.53     175.21     0          0

[XSECTIONS]
;;Link           Shape        Geom1      Geom2      Geom3      Geom4      Barrels
;;-------------- ------------ ---------- ---------- ---------- ---------- ----------
211              CIRCULAR     1.80       0          0          0          1
238              CIRCULAR     0.30       0          0          0          1
210              CIRCULAR     2.10       0          0          0          1
217              CIRCULAR     1.80       0          0          0          1
202              CIRCULAR     0.90       0          0          0          1
220              CIRCULAR     0.90       0          0          0          1
208              CIRCULAR     2.40       0          0          0          1
330              CIRCULAR     1.80       0          0          0          1
268              CIRCULAR     0.40       0          0          0          1
240              CIRCULAR     0.60       0          0          0          1
252              CIRCULAR     0.45       0          0          0          1
239              CIRCULAR     0.38       0          0          0          1
270              CIRCULAR     0.60       0          0          0          1
271              CIRCULAR     0.75       0          0          0          1
276              CIRCULAR     0.90       0          0          0          1
282              CIRCULAR     0.90       0          0          0          1
206              CIRCULAR     0.60       0          0          0          1
288              CIRCULAR     0.75       0          0          0          1
290              CIRCULAR     0.82       0          0          0          1
300              CIRCULAR     1.35       0          0          0          1
292              CIRCULAR     1.05       0          0          0          1
296              CIRCULAR     1.20       0          0          0          1
302              CIRCULAR     1.50       0          0          0          1
278              CIRCULAR     2.40       0          0          0          1
317              CIRCULAR     2.40       0          0          0          1
204              CIRCULAR     0.35       0          0          0          1
217              CIRCULAR     0.40       0          0          0          1
208              CIRCULAR     1.05       0          0          0          1
238              CIRCULAR     1.05       0          0          0          1

[LOSSES]
;;Link           Inlet      Outlet     Average    Flap Gate
;;-------------- ---------- ---------- ---------- ----------
211              0          0          0          NO
238              0          0          0          NO
210              0          0          0          NO
217              0          0          0          NO
202              0          0          0          NO
220              0          0          0          NO
208              0          0          0          NO
330              0          0          0          NO
268              0          0          0          NO
240              0          0          0          NO
252              0          0          0          NO
239              0          0          0          NO
270              0          0          0          NO
271              0          0          0          NO
276              0          0          0          NO
282              0          0          0          NO
206              0          0          0          NO
288              0          0          0          NO
290              0          0          0          NO
300              0          0          0          NO
292              0          0          0          NO
296              0          0          0          NO
302              0          0          0          NO
278              0          0          0          NO
317              0          0          0          NO
204              0          0          0          NO
217              0          0          0          NO
208              0          0          0          NO
238              0          0          0          NO

[COORDINATES]
;;Node           X-Coord            Y-Coord
;;-------------- ------------------ ------------------
0                81.94              111.07            
0                62.16              224.17            
0                38.54              222.82            
0                -45.00             93.83             
0                40.32              115.12            
0                110.19             168.71            
0                50.46              156.95            
0                84.59              183.90            
0                -51.90             -18.26            
0                -95.62             79.41             
0                122.95             166.03            
0                34.64              -37.80            
0                93.04              19.63             
0                121.65             -22.03            
0                70.19              -12.11            
0                90.92              52.32             
0                91.27              83.44             
0                119.95             252.97            
0                -101.03            224.35            
0                81.74              224.71            
0                17.26              225.29            
0                -1.76              226.73            
0                -19.91             226.01            
0                -38.07             225.29            
0                -60.55             225.29            
0                -79.57             225.29            
0                -100.37            148.53            
0                -76.26             40.89             
0                139.11             102.24            

[MAP]
DIMENSIONS -101.03 -37.80 139.11 252.97
Units      None

[REPORT]
INPUT            YES
SUBCATCHMENTS    ALL
NODES            ALL
LINKS            ALL



