;; SWMM5 .inp converted from XPSWMM .xp file
;; Generated by XPSWMM Card Reader
;; Source format: XP_CARD | Original title: CITY OF LIMA, OHIO

[TITLE]
;;Project Title/Notes
CITY OF LIMA, OHIO

[OPTIONS]
FLOW_UNITS           CFS
INFILTRATION         HORTON
FLOW_ROUTING         DYNWAVE
LINK_OFFSETS         DEPTH
MIN_SLOPE            0.0
ALLOW_PONDING        NO
SKIP_STEADY_STATE    NO
ROUTING_STEP         00:00:60
VARIABLE_STEP        0.75
INERTIAL_DAMPING     PARTIAL
NORMAL_FLOW_LIMITED  BOTH
HEAD_TOLERANCE       0.0033

[JUNCTIONS]
;;Name           Elev       MaxDepth   InitDepth  SurDepth   Aponded
;;-------------- ---------- ---------- ---------- ---------- ----------
WS002            118.71     0          0          0          0
WS004            117.75     0          0          0          0
WS005            118.66     0          0          0          0
WS006            122.27     0          0          0          0
WS007            123.00     0          0          0          0
WS008            128.62     0          0          0          0
WS009            128.45     0          0          0          0
WS010            132.69     0          0          0          0
WS011            136.22     0          0          0          0
WS012            128.00     0          0          0          0
WS013            130.00     0          0          0          0
WS014            133.00     0          0          0          0
WS019            127.35     0          0          0          0
WS020            127.55     0          0          0          0
WS021            127.55     0          0          0          0
WS026            129.98     0          0          0          0
WS027            129.98     0          0          0          0
WS050            119.47     0          0          0          0
WS051            116.92     0          0          0          0
WS052            127.72     0          0          0          0
WS060            123.04     0          0          0          0
WS061            125.16     0          0          0          0
WS062            129.80     0          0          0          0
WS063            130.80     0          0          0          0
WS064            131.65     0          0          0          0
WS070            122.54     0          0          0          0
WS071            125.38     0          0          0          0
WS072            128.74     0          0          0          0
WS073            130.26     0          0          0          0
WS074            130.80     0          0          0          0
WS075            131.31     0          0          0          0
WS080            123.59     0          0          0          0
WS081            126.19     0          0          0          0
WS085            124.00     0          0          0          0
WS086            127.40     0          0          0          0
WS087            131.86     0          0          0          0
WS100            129.84     0          0          0          0
WS101            127.83     0          0          0          0
WS102            126.03     0          0          0          0
WS110            133.31     0          0          0          0
WS111            133.23     0          0          0          0
WS112            131.12     0          0          0          0
WS120            136.98     0          0          0          0
WS121            137.45     0          0          0          0
WS122            134.35     0          0          0          0
WS130            136.24     0          0          0          0
WS131            137.62     0          0          0          0
WS132            138.51     0          0          0          0
WS200            119.53     0          0          0          0
WS201            119.52     0          0          0          0
WS202            122.52     0          0          0          0
WS203            129.96     0          0          0          0
WS210            129.80     0          0          0          0
WS215            119.52     0          0          0          0
WS216            126.60     0          0          0          0
WS217            115.94     0          0          0          0
WS218            113.11     0          0          0          0
WS219            113.18     0          0          0          0
WS220            113.07     0          0          0          0
WS221            121.81     0          0          0          0
WS222            118.80     0          0          0          0
WS223            123.41     0          0          0          0
WS224            117.84     0          0          0          0
WS225            112.73     0          0          0          0
WS230            121.92     0          0          0          0
WS231            115.69     0          0          0          0
WS232            115.40     0          0          0          0
WS233            115.79     0          0          0          0
WS234            115.97     0          0          0          0
WS235            118.06     0          0          0          0
WS236            119.00     0          0          0          0
WS237            119.00     0          0          0          0
WS238            119.00     0          0          0          0
WS270            118.75     0          0          0          0
WS271            124.70     0          0          0          0
WS272            127.80     0          0          0          0
WS273            127.50     0          0          0          0
WS274            127.50     0          0          0          0
WS275            126.60     0          0          0          0
WS280            114.00     0          0          0          0
WS281            115.00     0          0          0          0
WS310            113.96     0          0          0          0
WS311            113.69     0          0          0          0
WS312            113.60     0          0          0          0
WS313            120.15     0          0          0          0
WS321            111.87     0          0          0          0
WS322            110.11     0          0          0          0
WS323            110.28     0          0          0          0
WS324            112.71     0          0          0          0
WS325            112.07     0          0          0          0
WS350            108.00     0          0          0          0
WS351            108.43     0          0          0          0
WS352            108.95     0          0          0          0
WS353            108.61     0          0          0          0
WS354            109.00     0          0          0          0
WS355            110.50     0          0          0          0
WS356            110.51     0          0          0          0
WS357            111.00     0          0          0          0
WS400            109.00     0          0          0          0
WS401            109.00     0          0          0          0
WS402            109.00     0          0          0          0
WS420            111.28     0          0          0          0
WS421            110.31     0          0          0          0
WS451            107.64     0          0          0          0
WS452            108.00     0          0          0          0
WS453            108.00     0          0          0          0
WS470            108.58     0          0          0          0
WS471            109.09     0          0          0          0
WS472            111.72     0          0          0          0
WS473            112.11     0          0          0          0
WS474            113.12     0          0          0          0
WS475            114.09     0          0          0          0
WS476            114.39     0          0          0          0
WS477            115.76     0          0          0          0
WS478            115.21     0          0          0          0
WS480            117.39     0          0          0          0
WS481            117.50     0          0          0          0
WS482            118.00     0          0          0          0
WS483            118.82     0          0          0          0
WS484            120.96     0          0          0          0
WS485            122.00     0          0          0          0
WS490            122.00     0          0          0          0
WS491            122.00     0          0          0          0
WS492            122.92     0          0          0          0
WS510            118.00     0          0          0          0
WS515            111.74     0          0          0          0
WS516            113.26     0          0          0          0
WS517            114.35     0          0          0          0
WS518            115.65     0          0          0          0
WS519            116.60     0          0          0          0
WS520            116.83     0          0          0          0
WS521            117.93     0          0          0          0
WS522            118.00     0          0          0          0
WS523            118.00     0          0          0          0
WS530            114.12     0          0          0          0
WS531            113.23     0          0          0          0
WS532            113.00     0          0          0          0
WS533            113.00     0          0          0          0
WS560            116.07     0          0          0          0
WS561            117.38     0          0          0          0
WS562            119.87     0          0          0          0
WS563            117.59     0          0          0          0
WS564            116.46     0          0          0          0
WS565            116.47     0          0          0          0
WS566            117.25     0          0          0          0
WS567            117.60     0          0          0          0
WS568            119.97     0          0          0          0
WS569            120.96     0          0          0          0
WS570            118.00     0          0          0          0
WS580            115.17     0          0          0          0
WS581            116.60     0          0          0          0
WS582            115.17     0          0          0          0
WS583            112.16     0          0          0          0
WS584            112.12     0          0          0          0
WS599            107.28     0          0          0          0
WS610            107.74     0          0          0          0
WS611            109.01     0          0          0          0
WS612            109.45     0          0          0          0
WS613            110.00     0          0          0          0
WS614            112.00     0          0          0          0
WS615            113.00     0          0          0          0
WS616            115.00     0          0          0          0
WS618            108.58     0          0          0          0
WS619            109.97     0          0          0          0
WS620            108.78     0          0          0          0
WS700            117.12     0          0          0          0
WS701            123.81     0          0          0          0
WS702            122.18     0          0          0          0
WS703            121.42     0          0          0          0
WS705            120.40     0          0          0          0
WS706            123.70     0          0          0          0
WS710            118.29     0          0          0          0
WS711            120.21     0          0          0          0
WS712            119.12     0          0          0          0
WS713            124.62     0          0          0          0
WS714            131.92     0          0          0          0
WS730            124.57     0          0          0          0
WS731            123.10     0          0          0          0
WS732            128.01     0          0          0          0
WS733            128.47     0          0          0          0
WS734            129.89     0          0          0          0
WS735            132.51     0          0          0          0
WS740            123.92     0          0          0          0
WS741            123.92     0          0          0          0
WS742            121.35     0          0          0          0
WS750            122.20     0          0          0          0
WS751            125.17     0          0          0          0
WS752            130.03     0          0          0          0
WS780            119.92     0          0          0          0
WS781            118.49     0          0          0          0
WS782            122.90     0          0          0          0
WS783            122.73     0          0          0          0
WS784            127.23     0          0          0          0
WS785            122.48     0          0          0          0
WS790            129.07     0          0          0          0
WS791            127.73     0          0          0          0
WS792            131.79     0          0          0          0
WS793            127.42     0          0          0          0
WS800            132.90     0          0          0          0
WS801            132.83     0          0          0          0
WS802            137.30     0          0          0          0
WS803            130.67     0          0          0          0
WS805            139.32     0          0          0          0
WS806            140.00     0          0          0          0
WS820            133.32     0          0          0          0
WS821            133.14     0          0          0          0
WS822            133.50     0          0          0          0
WS830            133.57     0          0          0          0
WS831            133.75     0          0          0          0
WS832            133.72     0          0          0          0
WS835            133.50     0          0          0          0
WS836            133.50     0          0          0          0
WS900            115.91     0          0          0          0
WS901            112.38     0          0          0          0
WS902            112.49     0          0          0          0
WS903            114.20     0          0          0          0
WS904            114.00     0          0          0          0
WS906            114.69     0          0          0          0
WS907            114.71     0          0          0          0
WS908            115.00     0          0          0          0
WS909            115.00     0          0          0          0
WS910            117.15     0          0          0          0
WS911            119.14     0          0          0          0
WS912            120.66     0          0          0          0
WS915            118.00     0          0          0          0
BO               130.00     0          0          0          0
Outfall          130.00     0          0          0          0
WS351OF          108.43     0          0          0          0
WS471OF          109.00     0          0          0          0
WS476OF          114.00     0          0          0          0
WS225OF          112.00     0          0          0          0
WS480OF          117.00     0          0          0          0
WS219OF          113.00     0          0          0          0
WS312OF          113.00     0          0          0          0
WS516OF          113.00     0          0          0          0
690              110.00     0          0          0          0
WS599OF          106.00     0          0          0          0
WS002OF          118.71     0          0          0          0

[STORAGE]
;;Name           Elev       MaxDepth   InitDepth  Shape      Curve/Params
;;-------------- ---------- ---------- ---------- ---------- ----------
WS001            119.53     0          0          FUNCTIONAL 126.00 0          0
WS320            113.81     0          0          FUNCTIONAL 12.56 0          0

[CONDUITS]
;;Name           From             To               Length     Roughness  InOffset   OutOffset  InitFlow   MaxFlow
;;-------------- ---------------- ---------------- ---------- ---------- ---------- ---------- ---------- ----------
WS004WS002       WS004            WS002            175.00     0.0140     107.45     107.10     0          0
WS005WS004       WS005            WS004            261.00     0.0140     107.97     107.45     0          0
WS006WS005       WS006            WS005            417.00     0.0140     108.80     107.97     0          0
WS007WS006       WS007            WS006            440.00     0.0140     114.84     111.50     0          0
WS008WS006       WS008            WS006            350.00     0.0140     115.39     114.30     0          0
WS009WS008       WS009            WS008            256.00     0.0140     116.07     115.39     0          0
WS010WS009       WS010            WS009            66.00      0.0140     116.40     116.07     0          0
WS011WS010       WS011            WS010            276.00     0.0140     117.63     116.40     0          0
WS012WS011       WS012            WS011            225.00     0.0140     118.60     117.63     0          0
WS013WS012       WS013            WS012            70.00      0.0140     120.00     118.60     0          0
WS014WS013       WS014            WS013            118.00     0.0140     125.98     123.00     0          0
WS019WS012       WS019            WS012            100.00     0.0140     120.11     118.60     0          0
WS020WS019       WS020            WS019            20.00      0.0140     120.38     120.11     0          0
WS021WS020       WS021            WS020            175.00     0.0140     121.26     120.38     0          0
WS026WS020       WS026            WS020            277.00     0.0140     122.76     120.38     0          0
WS027WS026       WS027            WS026            275.00     0.0140     125.40     122.76     0          0
WS050WS006       WS050            WS006            461.00     0.0140     109.73     108.81     0          0
WS051WS050       WS051            WS050            85.00      0.0140     109.89     109.73     0          0
WS052WS051       WS052            WS051            331.00     0.0140     117.84     111.22     0          0
WS060WS051       WS060            WS051            66.00      0.0140     112.96     112.00     0          0
WS061WS060       WS061            WS060            250.00     0.0140     116.26     112.96     0          0
WS062WS061       WS062            WS061            328.00     0.0140     119.53     116.26     0          0
WS063WS062       WS063            WS062            280.00     0.0140     120.89     119.53     0          0
WS064WS063       WS064            WS063            267.00     0.0140     122.21     120.89     0          0
WS070WS051       WS070            WS051            454.00     0.0140     114.70     109.89     0          0
WS071WS070       WS071            WS070            340.00     0.0140     115.78     114.70     0          0
WS072WS071       WS072            WS071            292.00     0.0140     120.09     115.78     0          0
WS073WS072       WS073            WS072            460.00     0.0140     120.39     120.09     0          0
WS074WS073       WS074            WS073            452.00     0.0140     122.76     120.39     0          0
WS075WS072       WS075            WS072            492.00     0.0140     121.15     120.09     0          0
WS080WS070       WS080            WS070            468.00     0.0140     115.29     114.70     0          0
WS081WS080       WS081            WS080            275.00     0.0140     118.04     115.29     0          0
WS085WS080       WS085            WS080            337.00     0.0140     116.97     115.29     0          0
WS086WS085       WS086            WS085            296.00     0.0140     118.45     116.97     0          0
WS087WS086       WS087            WS086            393.00     0.0140     123.56     118.45     0          0
WS100WS070       WS100            WS070            405.00     0.0140     119.60     114.70     0          0
WS101WS100       WS101            WS100            403.00     0.0140     119.43     119.60     0          0
WS102WS101       WS102            WS101            368.00     0.0140     120.71     119.43     0          0
WS110WS100       WS110            WS100            302.00     0.0140     123.89     119.60     0          0
WS111WS110       WS111            WS110            395.00     0.0140     124.73     122.50     0          0
WS112WS111       WS112            WS111            371.00     0.0140     126.75     124.73     0          0
WS120WS110       WS120            WS110            360.00     0.0140     128.29     126.84     0          0
WS121WS120       WS121            WS120            124.00     0.0140     128.79     128.29     0          0
WS122WS121       WS122            WS121            201.00     0.0140     129.29     128.79     0          0
WS130WS110       WS130            WS110            333.00     0.0140     125.74     122.46     0          0
WS131WS130       WS131            WS130            220.00     0.0140     127.07     125.74     0          0
WS132WS131       WS132            WS131            129.00     0.0140     128.15     127.07     0          0
WS200WS002       WS200            WS002            41.00      0.0140     109.42     108.48     0          0
WS201WS200       WS201            WS200            201.00     0.0140     106.27     106.84     0          0
WS202WS201       WS202            WS201            463.00     0.0140     114.12     109.62     0          0
WS203WS202       WS203            WS202            518.00     0.0140     119.40     112.85     0          0
WS210WS202       WS210            WS202            387.00     0.0140     123.29     115.25     0          0
WS215WS201       WS215            WS201            250.00     0.0140     107.27     106.27     0          0
WS216WS215       WS216            WS215            375.00     0.0140     108.77     107.27     0          0
WS217WS201       WS217            WS201            110.00     0.0140     109.35     108.63     0          0
WS218WS201       WS218            WS201            264.00     0.0140     106.45     106.27     0          0
WS219WS218       WS219            WS218            195.00     0.0140     106.55     106.45     0          0
WS220WS219       WS220            WS219            251.00     0.0140     106.87     106.55     0          0
WS221WS220       WS221            WS220            267.00     0.0140     107.46     106.88     0          0
WS222WS221       WS222            WS221            277.00     0.0140     107.86     107.46     0          0
WS223WS222       WS223            WS222            198.00     0.0140     108.26     107.87     0          0
WS224WS230       WS224            WS230            168.00     0.0140     109.34     108.32     0          0
WS225WS224       WS225            WS224            366.00     0.0140     110.02     109.34     0          0
WS230WS223       WS230            WS223            174.00     0.0140     108.32     108.27     0          0
WS231WS230       WS231            WS230            500.00     0.0140     110.41     108.32     0          0
WS232WS231       WS232            WS231            60.00      0.0140     110.66     110.41     0          0
WS233WS232       WS233            WS232            174.00     0.0140     111.38     110.66     0          0
WS234WS233       WS234            WS233            9.00       0.0140     111.42     111.38     0          0
WS235WS234       WS235            WS234            70.00      0.0140     111.52     111.42     0          0
WS236WS235       WS236            WS235            178.00     0.0140     112.26     111.52     0          0
WS237WS236       WS237            WS236            45.00      0.0140     112.45     112.26     0          0
WS238WS237       WS238            WS237            195.00     0.0140     113.26     112.45     0          0
WS270WS235       WS270            WS235            48.00      0.0140     111.62     111.52     0          0
WS271WS270       WS271            WS270            287.00     0.0140     114.48     111.62     0          0
WS272WS271       WS272            WS271            380.00     0.0140     115.84     114.48     0          0
WS273WS272       WS273            WS272            177.00     0.0140     116.80     115.84     0          0
WS274WS273       WS274            WS273            25.00      0.0140     116.85     116.80     0          0
WS275WS274       WS275            WS274            412.00     0.0140     119.50     116.85     0          0
WS280WS233       WS280            WS233            315.00     0.0140     112.69     111.38     0          0
WS281WS280       WS281            WS280            135.00     0.0140     113.25     112.69     0          0
WS310WS221       WS310            WS221            307.00     0.0140     107.86     107.46     0          0
WS311WS310       WS311            WS310            291.00     0.0140     108.69     107.86     0          0
WS312WS311       WS312            WS311            54.00      0.0140     108.80     108.69     0          0
WS313WS312       WS313            WS312            229.00     0.0140     113.82     109.00     0          0
WS320WS312       WS320            WS312            213.00     0.0140     109.01     108.92     0          0
WS321WS322       WS321            WS322            199.00     0.0140     105.31     103.06     0          0
WS322WS352       WS322            WS352            82.00      0.0140     96.39      95.26      0          0
WS323WS322       WS323            WS322            70.00      0.0140     99.17      98.81      0          0
WS324WS323       WS324            WS323            249.00     0.0140     100.27     99.17      0          0
WS325WS321       WS325            WS321            137.00     0.0140     106.13     105.37     0          0
WS351WS350       WS351            WS350            122.00     0.0140     95.01      95.00      0          0
WS352WS351       WS352            WS351            31.00      0.0140     95.44      95.01      0          0
WS353WS351       WS353            WS351            241.00     0.0140     96.61      95.59      0          0
WS354WS353       WS354            WS353            300.00     0.0140     98.55      96.61      0          0
WS355WS354       WS355            WS354            297.00     0.0140     100.48     98.55      0          0
WS356WS355       WS356            WS355            213.00     0.0140     101.86     100.48     0          0
WS357WS356       WS357            WS356            175.00     0.0140     102.99     101.86     0          0
WS400WS401       WS400            WS401            105.00     0.0140     97.85      97.45      0          0
WS401WS353       WS401            WS353            210.00     0.0140     97.45      96.61      0          0
WS402WS401       WS402            WS401            279.00     0.0140     98.57      97.45      0          0
WS420WS355       WS420            WS355            165.00     0.0140     101.45     100.48     0          0
WS421WS420       WS421            WS420            156.00     0.0140     102.34     101.45     0          0
WS451WS355       WS451            WS355            332.00     0.0140     100.12     100.48     0          0
WS452WS451       WS452            WS451            240.00     0.0140     101.08     100.12     0          0
WS453WS451       WS453            WS451            225.00     0.0140     101.02     100.12     0          0
WS470WS618       WS470            WS618            38.00      0.0140     97.64      95.82      0          0
WS471WS470       WS471            WS470            155.00     0.0140     100.39     97.64      0          0
WS472WS619       WS472            WS619            300.00     0.0140     103.12     101.71     0          0
WS473WS472       WS473            WS472            270.00     0.0140     104.09     103.13     0          0
WS474WS473       WS474            WS473            240.00     0.0140     105.07     104.10     0          0
WS475WS474       WS475            WS474            139.00     0.0140     105.84     105.12     0          0
WS476WS475       WS476            WS475            380.00     0.0140     107.47     105.84     0          0
WS477WS476       WS477            WS476            402.00     0.0140     109.26     107.62     0          0
WS478WS477       WS478            WS477            399.00     0.0140     110.83     109.30     0          0
WS480WS476       WS480            WS476            290.00     0.0140     109.85     107.57     0          0
WS481WS480       WS481            WS480            162.00     0.0140     110.83     109.93     0          0
WS482WS481       WS482            WS481            114.00     0.0140     111.60     110.83     0          0
WS483WS482       WS483            WS482            153.00     0.0140     112.42     111.60     0          0
WS484WS483       WS484            WS483            294.00     0.0140     112.95     112.42     0          0
WS485WS492       WS485            WS492            150.00     0.0140     114.11     113.51     0          0
WS490WS485       WS490            WS485            75.00      0.0140     114.91     114.11     0          0
WS491WS485       WS491            WS485            150.00     0.0140     114.71     114.11     0          0
WS492WS484       WS492            WS484            150.00     0.0140     113.51     112.95     0          0
WS510WS482       WS510            WS482            210.00     0.0140     112.44     111.60     0          0
WS515WS471       WS515            WS471            115.00     0.0140     101.47     100.79     0          0
WS516WS515       WS516            WS515            80.00      0.0140     101.54     101.47     0          0
WS517WS516       WS517            WS516            125.00     0.0140     102.60     101.58     0          0