;; SWMM5 .inp converted from XPSWMM .xp file
;; Generated by XPSWMM Card Reader
;; Source format: XP_CARD | Original title: OSIS IIA, Interceptor Study

[TITLE]
;;Project Title/Notes
OSIS IIA, Interceptor Study

[OPTIONS]
FLOW_UNITS           CFS
INFILTRATION         HORTON
FLOW_ROUTING         DYNWAVE
LINK_OFFSETS         DEPTH
MIN_SLOPE            0.0
ALLOW_PONDING        NO
SKIP_STEADY_STATE    NO
ROUTING_STEP         00:00:30
VARIABLE_STEP        0.75
INERTIAL_DAMPING     NONE
NORMAL_FLOW_LIMITED  BOTH
MAX_TRIALS           3

[JUNCTIONS]
;;Name           Elev       MaxDepth   InitDepth  SurDepth   Aponded
;;-------------- ---------- ---------- ---------- ---------- ----------
1069             734.35     0          0          0          0
1067             733.15     0          0          0          0
1071             735.85     0          0          0          0
1073             738.15     0          0          0          0
1075             738.15     0          0          0          0
1077             739.85     0          0          0          0
1079             736.95     0          0          0          0
1081             740.65     0          0          0          0
1083             741.35     0          0          0          0
1085             740.95     0          0          0          0
1087             740.35     0          0          0          0
1089             741.45     0          0          0          0
1091             744.25     0          0          0          0
1093             773.55     0          0          0          0
1095             742.35     0          0          0          0
1097             740.35     0          0          0          0
1099             740.05     0          0          0          0
1101             748.45     0          0          0          0
1103             744.85     0          0          0          0
1105             747.35     0          0          0          0
1107             748.95     0          0          0          0
1109             749.25     0          0          0          0
1111             750.95     0          0          0          0
1113             751.15     0          0          0          0
1115             752.35     0          0          0          0
1117             748.35     0          0          0          0
1119             753.45     0          0          0          0
1121             750.85     0          0          0          0
1123             753.85     0          0          0          0
1125             756.85     0          0          0          0
1127             757.55     0          0          0          0
1129             756.55     0          0          0          0
1131             759.55     0          0          0          0
1133             759.85     0          0          0          0
1135             760.65     0          0          0          0
1137             756.25     0          0          0          0
1139             753.95     0          0          0          0
1141             758.65     0          0          0          0
1143             757.85     0          0          0          0
1145             759.85     0          0          0          0
1147             758.45     0          0          0          0
1149             758.25     0          0          0          0
1151             763.05     0          0          0          0
1153             763.85     0          0          0          0
1501             748.35     0          0          0          0
1503             742.05     0          0          0          0
1505             743.95     0          0          0          0
1507             747.25     0          0          0          0
1509             764.35     0          0          0          0
1511             766.85     0          0          0          0
1513             767.35     0          0          0          0

[CONDUITS]
;;Name           From             To               Length     Roughness  InOffset   OutOffset  InitFlow   MaxFlow
;;-------------- ---------------- ---------------- ---------- ---------- ---------- ---------- ---------- ----------
1068             1069             1067             529.90     0.0130     725.38     725.03     0          0
1070             1071             1069             469.80     0.0130     725.62     725.38     0          0
1072             1073             1071             962.60     0.0130     726.10     725.62     0          0
1074             1075             1073             559.20     0.0130     726.38     726.10     0          0
1076             1077             1075             559.00     0.0130     726.66     726.38     0          0
1078             1079             1077             630.80     0.0130     726.98     726.66     0          0
1080             1081             1079             791.50     0.0130     727.37     726.98     0          0
1082             1083             1081             504.50     0.0130     727.63     727.37     0          0
1084             1085             1083             503.00     0.0130     727.88     727.63     0          0
1086             1087             1085             618.60     0.0130     728.18     727.88     0          0
1088             1089             1087             438.40     0.0130     728.40     728.18     0          0
1090             1091             1089             964.00     0.0130     728.78     728.40     0          0
1092             1093             1091             689.00     0.0130     729.23     728.78     0          0
1094             1095             1093             673.50     0.0130     729.57     729.23     0          0
1096             1097             1095             484.50     0.0130     729.79     729.57     0          0
1098             1099             1097             291.30     0.0130     729.94     729.79     0          0
1100             1101             1099             621.44     0.0130     731.54     729.94     0          0
1102             1103             1101             331.36     0.0130     731.73     731.54     0          0
1104             1105             1103             830.70     0.0130     732.23     731.73     0          0
1106             1107             1105             820.30     0.0130     732.72     732.23     0          0
1108             1109             1107             630.45     0.0130     733.29     732.72     0          0
1110             1111             1109             847.05     0.0130     734.67     733.29     0          0
1112             1113             1111             709.70     0.0130     735.31     734.67     0          0
1114             1115             1113             355.67     0.0130     735.90     735.31     0          0
1116             1117             1115             1084.58    0.0130     737.26     735.90     0          0
1118             1119             1117             880.65     0.0130     738.30     737.26     0          0
1120             1121             1119             524.35     0.0130     738.83     738.30     0          0
1122             1123             1121             558.00     0.0130     740.01     738.83     0          0
1124             1125             1123             831.80     0.0130     741.03     740.01     0          0
1126             1127             1125             883.30     0.0130     742.03     741.03     0          0
1128             1129             1127             429.30     0.0130     742.57     742.03     0          0
1130             1131             1129             444.90     0.0130     743.09     742.57     0          0
1132             1133             1131             600.70     0.0130     743.85     743.09     0          0
1134             1135             1133             927.00     0.0130     744.94     743.85     0          0
1136             1137             1135             511.08     0.0130     745.37     744.94     0          0
1138             1139             1137             822.15     0.0130     746.27     745.37     0          0
1140             1141             1139             1342.95    0.0130     747.89     746.27     0          0
1142             1143             1141             588.60     0.0130     748.87     747.89     0          0
1144             1145             1143             539.96     0.0130     749.42     748.87     0          0
1146             1147             1145             763.81     0.0130     750.24     749.42     0          0
1148             1149             1147             404.08     0.0130     751.28     750.42     0          0
1150             1151             1149             718.75     0.0130     752.49     751.28     0          0
1152             1153             1151             586.14     0.0130     753.42     752.49     0          0
1500             1501             1099             137.20     0.0130     731.35     731.04     0          0
1502             1503             1501             579.96     0.0130     732.22     731.35     0          0
1504             1505             1503             374.53     0.0130     733.15     732.22     0          0
1506             1507             1505             444.70     0.0130     735.89     733.15     0          0
1508             1509             1507             294.00     0.0130     745.59     735.89     0          0
1510             1511             1509             789.60     0.0130     750.42     745.59     0          0
1512             1513             1511             15.00      0.0130     761.23     760.94     0          0

[XSECTIONS]
;;Link           Shape        Geom1      Geom2      Geom3      Geom4      Barrels
;;-------------- ------------ ---------- ---------- ---------- ---------- ----------
1068             CIRCULAR     5.50       0          0          0          1
1070             CIRCULAR     5.50       0          0          0          1
1072             CIRCULAR     5.50       0          0          0          1
1074             CIRCULAR     5.50       0          0          0          1
1076             CIRCULAR     5.50       0          0          0          1
1078             CIRCULAR     5.50       0          0          0          1
1080             CIRCULAR     5.50       0          0          0          1
1082             CIRCULAR     5.50       0          0          0          1
1084             CIRCULAR     5.50       0          0          0          1
1086             CIRCULAR     5.50       0          0          0          1
1088             CIRCULAR     5.50       0          0          0          1
1090             CIRCULAR     5.50       0          0          0          1
1092             CIRCULAR     5.50       0          0          0          1
1094             CIRCULAR     5.50       0          0          0          1
1096             CIRCULAR     5.50       0          0          0          1
1098             CIRCULAR     5.50       0          0          0          1
1100             CIRCULAR     5.00       0          0          0          1
1102             CIRCULAR     5.00       0          0          0          1
1104             CIRCULAR     5.00       0          0          0          1
1106             CIRCULAR     5.00       0          0          0          1
1108             CIRCULAR     5.00       0          0          0          1
1110             CIRCULAR     4.50       0          0          0          1
1112             CIRCULAR     4.50       0          0          0          1
1114             CIRCULAR     4.50       0          0          0          1
1116             CIRCULAR     4.50       0          0          0          1
1118             CIRCULAR     4.50       0          0          0          1
1120             CIRCULAR     4.50       0          0          0          1
1122             CIRCULAR     4.00       0          0          0          1
1124             CIRCULAR     4.00       0          0          0          1
1126             CIRCULAR     4.00       0          0          0          1
1128             CIRCULAR     4.00       0          0          0          1
1130             CIRCULAR     4.00       0          0          0          1
1132             CIRCULAR     4.00       0          0          0          1
1134             CIRCULAR     4.00       0          0          0          1
1136             CIRCULAR     4.00       0          0          0          1
1138             CIRCULAR     4.00       0          0          0          1
1140             CIRCULAR     4.00       0          0          0          1
1142             CIRCULAR     4.00       0          0          0          1
1144             CIRCULAR     3.50       0          0          0          1
1146             CIRCULAR     3.00       0          0          0          1
1148             CIRCULAR     3.00       0          0          0          1
1150             CIRCULAR     3.00       0          0          0          1
1152             CIRCULAR     3.00       0          0          0          1
1500             CIRCULAR     3.00       0          0          0          1
1502             CIRCULAR     3.01       0          0          0          1
1504             CIRCULAR     3.01       0          0          0          1
1506             CIRCULAR     2.50       0          0          0          1
1508             CIRCULAR     2.50       0          0          0          1
1510             CIRCULAR     2.50       0          0          0          1
1512             CIRCULAR     2.50       0          0          0          1

[LOSSES]
;;Link           Inlet      Outlet     Average    Flap Gate
;;-------------- ---------- ---------- ---------- ----------
1068             0          0          0          NO
1070             0          0          0          NO
1072             0          0          0          NO
1074             0          0          0          NO
1076             0          0          0          NO
1078             0          0          0          NO
1080             0          0          0          NO
1082             0          0          0          NO
1084             0          0          0          NO
1086             0          0          0          NO
1088             0          0          0          NO
1090             0          0          0          NO
1092             0          0          0          NO
1094             0          0          0          NO
1096             0          0          0          NO
1098             0          0          0          NO
1100             0          0          0          NO
1102             0          0          0          NO
1104             0          0          0          NO
1106             0          0          0          NO
1108             0          0          0          NO
1110             0          0          0          NO
1112             0          0          0          NO
1114             0          0          0          NO
1116             0          0          0          NO
1118             0          0          0          NO
1120             0          0          0          NO
1122             0          0          0          NO
1124             0          0          0          NO
1126             0          0          0          NO
1128             0          0          0          NO
1130             0          0          0          NO
1132             0          0          0          NO
1134             0          0          0          NO
1136             0          0          0          NO
1138             0          0          0          NO
1140             0          0          0          NO
1142             0          0          0          NO
1144             0          0          0          NO
1146             0          0          0          NO
1148             0          0          0          NO
1150             0          0          0          NO
1152             0          0          0          NO
1500             0          0          0          NO
1502             0          0          0          NO
1504             0          0          0          NO
1506             0          0          0          NO
1508             0          0          0          NO
1510             0          0          0          NO
1512             0          0          0          NO

[COORDINATES]
;;Node           X-Coord            Y-Coord
;;-------------- ------------------ ------------------
1069             1234.43            92.49             
1067             1254.43            92.49             
1071             1214.43            92.49             
1073             1194.43            92.49             
1075             1174.43            92.49             
1077             1154.43            92.49             
1079             1134.43            92.49             
1081             1114.43            92.49             
1083             1094.43            92.49             
1085             1074.43            92.49             
1087             1054.43            92.49             
1089             1034.43            92.49             
1091             1014.43            92.49             
1093             994.43             92.49             
1095             974.43             92.49             
1097             954.43             92.49             
1099             934.43             92.49             
1101             914.43             92.49             
1103             894.43             92.49             
1105             874.43             92.49             
1107             854.43             92.49             
1109             834.43             92.49             
1111             814.43             92.49             
1113             794.43             92.49             
1115             774.43             92.49             
1117             754.43             92.49             
1119             734.43             92.49             
1121             714.43             92.49             
1123             694.43             92.49             
1125             674.43             92.49             
1127             654.43             92.49             
1129             634.43             92.49             
1131             614.43             92.49             
1133             594.43             92.49             
1135             574.43             92.49             
1137             554.43             92.49             
1139             534.43             92.49             
1141             514.43             92.49             
1143             494.43             92.49             
1145             474.43             92.49             
1147             454.43             92.49             
1149             434.43             92.49             
1151             414.43             92.49             
1153             394.43             92.49             
1501             934.43             112.49            
1503             934.43             132.49            
1505             934.43             152.49            
1507             934.43             172.49            
1509             934.43             192.49            
1511             934.43             212.49            
1513             934.43             232.49            

[MAP]
DIMENSIONS 394.43 92.49 1254.43 232.49
Units      None

[REPORT]
INPUT            YES
SUBCATCHMENTS    ALL
NODES            ALL
LINKS            ALL



