;; SWMM5 .inp converted from XPSWMM .xp file
;; Generated by XPSWMM Card Reader
;; Source format: XP_CARD | Original title: (none)

[TITLE]
;;Project Title/Notes
Converted from XPSWMM .xp file

[OPTIONS]
FLOW_UNITS           CFS
INFILTRATION         HORTON
FLOW_ROUTING         DYNWAVE
LINK_OFFSETS         DEPTH
MIN_SLOPE            0.0
ALLOW_PONDING        NO
SKIP_STEADY_STATE    NO
ROUTING_STEP         00:00:15
VARIABLE_STEP        0.75
INERTIAL_DAMPING     PARTIAL
NORMAL_FLOW_LIMITED  BOTH
MAX_TRIALS           50
HEAD_TOLERANCE       0.0033

[JUNCTIONS]
;;Name           Elev       MaxDepth   InitDepth  SurDepth   Aponded
;;-------------- ---------- ---------- ---------- ---------- ----------
501              50.00      0          0          0          0
502              50.00      0          0          0          0
503              50.00      0          0          0          0
504              50.00      0          0          0          0
232              50.00      0          0          0          0
out              50.00      0          0          0          0
507              50.00      0          0          0          0
236              50.00      0          0          0          0
508              50.00      0          0          0          0
509              50.00      0          0          0          0
510              50.00      0          0          0          0
506              50.00      0          0          0          0
505              50.00      0          0          0          0
512              50.00      0          0          0          0
251              50.00      0          0          0          0

[CONDUITS]
;;Name           From             To               Length     Roughness  InOffset   OutOffset  InitFlow   MaxFlow
;;-------------- ---------------- ---------------- ---------- ---------- ---------- ---------- ---------- ----------
501              501              232              300.00     0.0140     1.00       0          0          0
502              502              232              300.00     0.0140     1.00       0          0          0
503              503              232              300.00     0.0140     1.00       0          0          0
504              504              232              300.00     0.0140     1.00       0          0          0
234              ?                ?                300.00     0.0140     0          -2.00      0          0
507              507              236              300.00     0.0140     1.00       0          0          0
508              508              236              300.00     0.0140     1.00       0          0          0
509              509              236              300.00     0.0140     1.00       0          0          0
510              510              236              300.00     0.0140     1.00       0          0          0
506              506              236              300.00     0.0140     1.00       0          0          0
505              505              232              300.00     0.0140     1.00       0          0          0
512              512              236              300.00     0.0140     1.00       0          0          0
250              ?                ?                300.00     0.0140     0          -2.00      0          0
252              ?                ?                300.00     0.0140     -2.00      -4.00      0          0

[XSECTIONS]
;;Link           Shape        Geom1      Geom2      Geom3      Geom4      Barrels
;;-------------- ------------ ---------- ---------- ---------- ---------- ----------
501              TRAPEZOIDAL  30.00      10.00      0          0          1
502              TRAPEZOIDAL  30.00      10.00      0          0          1
503              TRAPEZOIDAL  30.00      10.00      0          0          1
504              TRAPEZOIDAL  30.00      10.00      0          0          1
234              TRAPEZOIDAL  30.00      20.00      0          0          1
507              TRAPEZOIDAL  30.00      10.00      0          0          1
508              TRAPEZOIDAL  30.00      10.00      0          0          1
509              TRAPEZOIDAL  30.00      10.00      0          0          1
510              TRAPEZOIDAL  30.00      10.00      0          0          1
506              TRAPEZOIDAL  30.00      10.00      0          0          1
505              TRAPEZOIDAL  30.00      10.00      0          0          1
512              TRAPEZOIDAL  30.00      10.00      0          0          1
250              TRAPEZOIDAL  30.00      20.00      0          0          1
252              TRAPEZOIDAL  30.00      50.00      0          0          1

[LOSSES]
;;Link           Inlet      Outlet     Average    Flap Gate
;;-------------- ---------- ---------- ---------- ----------
501              0          0          0          NO
502              0          0          0          NO
503              0          0          0          NO
504              0          0          0          NO
234              0          0          0          NO
507              0          0          0          NO
508              0          0          0          NO
509              0          0          0          NO
510              0          0          0          NO
506              0          0          0          NO
505              0          0          0          NO
512              0          0          0          NO
250              0          0          0          NO
252              0          0          0          NO

[COORDINATES]
;;Node           X-Coord            Y-Coord
;;-------------- ------------------ ------------------
501              40.10              -53.54            
502              30.03              -34.85            
503              33.56              -18.32            
504              40.16              -9.54             
232              54.43              -30.30            
out              98.35              11.04             
507              32.37              27.65             
236              54.15              45.91             
508              25.32              44.15             
509              28.55              59.36             
510              38.93              70.14             
506              46.77              20.74             
505              53.51              -5.74             
512              56.32              70.68             
251              113.76             33.59             

[MAP]
DIMENSIONS 25.32 -53.54 113.76 70.68
Units      None

[REPORT]
INPUT            YES
SUBCATCHMENTS    ALL
NODES            ALL
LINKS            ALL



