;; SWMM5 .inp converted from XPSWMM .xp file
;; Generated by XPSWMM Card Reader
;; Source format: XP_CARD | Original title: Interceptor Model - CSO002 AND 003 SEPARATED, JUDAY CREEK LS

[TITLE]
;;Project Title/Notes
Interceptor Model - CSO002 AND 003 SEPARATED, JUDAY CREEK LS

[OPTIONS]
FLOW_UNITS           CFS
INFILTRATION         HORTON
FLOW_ROUTING         DYNWAVE
LINK_OFFSETS         DEPTH
MIN_SLOPE            0.0
ALLOW_PONDING        NO
SKIP_STEADY_STATE    NO
ROUTING_STEP         00:00:10
VARIABLE_STEP        0.75
INERTIAL_DAMPING     PARTIAL
NORMAL_FLOW_LIMITED  BOTH
MAX_TRIALS           50
HEAD_TOLERANCE       0.0033

[JUNCTIONS]
;;Name           Elev       MaxDepth   InitDepth  SurDepth   Aponded
;;-------------- ---------- ---------- ---------- ---------- ----------
0                715.00     0          0          0          0
0                715.00     0          0          0          0
0                716.00     0          0          0          0
0                716.00     0          0          0          0
0                715.00     0          0          0          0
0                715.00     0          0          0          0
0                716.00     0          0          0          0
0                705.19     0          0          0          0
0                715.00     0          0          0          0
0                695.00     0          0          0          0
0                695.00     0          0          0          0
0                696.00     0          0          0          0
0                698.00     0          0          0          0
0                697.00     0          0          0          0
0                702.00     0          0          0          0
0                694.00     0          0          0          0
0                696.00     0          0          0          0
0                697.00     0          0          0          0
0                701.00     0          0          0          0
0                700.00     0          0          0          0
0                710.00     0          0          0          0
0                706.00     0          0          0          0
0                709.00     0          0          0          0
0                710.00     0          0          0          0
0                707.00     0          0          0          0
0                713.00     0          0          0          0
0                715.00     0          0          0          0
0                720.00     0          0          0          0
0                722.00     0          0          0          0
0                723.00     0          0          0          0
0                722.00     0          0          0          0
0                705.00     0          0          0          0
0                705.00     0          0          0          0
0                712.00     0          0          0          0
0                712.00     0          0          0          0
0                712.00     0          0          0          0
0                713.12     0          0          0          0
0                699.54     0          0          0          0
0                699.17     0          0          0          0
0                727.00     0          0          0          0
0                726.00     0          0          0          0
0                726.00     0          0          0          0
0                723.00     0          0          0          0
0                723.00     0          0          0          0
0                724.00     0          0          0          0
0                726.00     0          0          0          0
0                723.00     0          0          0          0
0                723.00     0          0          0          0
0                721.00     0          0          0          0
0                722.00     0          0          0          0
0                726.00     0          0          0          0
0                727.00     0          0          0          0
0                728.00     0          0          0          0
0                727.00     0          0          0          0
0                730.00     0          0          0          0
0                729.00     0          0          0          0
0                729.00     0          0          0          0
0                731.00     0          0          0          0
0                730.00     0          0          0          0
0                730.00     0          0          0          0
0                705.00     0          0          0          0
0                698.00     0          0          0          0
0                704.00     0          0          0          0
0                716.00     0          0          0          0
0                719.00     0          0          0          0
0                721.00     0          0          0          0
0                722.00     0          0          0          0
0                715.09     0          0          0          0
0                717.00     0          0          0          0
0                722.00     0          0          0          0
0                714.65     0          0          0          0
0                723.00     0          0          0          0
0                724.00     0          0          0          0
0                722.00     0          0          0          0
0                723.00     0          0          0          0
0                724.00     0          0          0          0
0                725.00     0          0          0          0
0                698.00     0          0          0          0
0                696.00     0          0          0          0
0                697.48     0          0          0          0
0                707.00     0          0          0          0
0                710.69     0          0          0          0
0                712.00     0          0          0          0
0                714.00     0          0          0          0
0                720.00     0          0          0          0
0                721.00     0          0          0          0
0                722.82     0          0          0          0
0                700.00     0          0          0          0
0                703.00     0          0          0          0
0                702.00     0          0          0          0
0                699.31     0          0          0          0
0                692.00     0          0          0          0
0                685.00     0          0          0          0
0                716.00     0          0          0          0
0                717.00     0          0          0          0
0                711.33     0          0          0          0
0                716.00     0          0          0          0
0                716.00     0          0          0          0
0                716.00     0          0          0          0
0                716.00     0          0          0          0
0                715.00     0          0          0          0
0                717.00     0          0          0          0
0                716.00     0          0          0          0
0                718.00     0          0          0          0
0                719.00     0          0          0          0
0                714.04     0          0          0          0
0                714.00     0          0          0          0
0                710.31     0          0          0          0
0                710.31     0          0          0          0
0                710.31     0          0          0          0
0                711.33     0          0          0          0
0                692.79     0          0          0          0
0                692.79     0          0          0          0
0                697.48     0          0          0          0
0                740.00     0          0          0          0
0                735.00     0          0          0          0
0                720.00     0          0          0          0
0                715.09     0          0          0          0
0                714.65     0          0          0          0
0                714.65     0          0          0          0
0                717.00     0          0          0          0
0                721.01     0          0          0          0
0                721.01     0          0          0          0
0                721.01     0          0          0          0
0                725.00     0          0          0          0
0                722.82     0          0          0          0
0                722.82     0          0          0          0
0                713.12     0          0          0          0
0                730.24     0          0          0          0
0                730.24     0          0          0          0
0                710.69     0          0          0          0
0                710.69     0          0          0          0
0                699.17     0          0          0          0
0                721.82     0          0          0          0
0                699.00     0          0          0          0
0                699.00     0          0          0          0
0                727.00     0          0          0          0
0                710.30     0          0          0          0
0                692.79     0          0          0          0
0                697.00     0          0          0          0
0                730.00     0          0          0          0
0                716.00     0          0          0          0
0                700.00     0          0          0          0
0                715.00     0          0          0          0
0                716.00     0          0          0          0
0                715.00     0          0          0          0
0                730.00     0          0          0          0
0                715.00     0          0          0          0
0                715.00     0          0          0          0
0                716.00     0          0          0          0
0                710.00     0          0          0          0
0                722.00     0          0          0          0
0                725.00     0          0          0          0
0                730.00     0          0          0          0
0                711.00     0          0          0          0
0                710.00     0          0          0          0
0                725.00     0          0          0          0
0                725.00     0          0          0          0
0                699.31     0          0          0          0
0                695.00     0          0          0          0
0                695.00     0          0          0          0
0                740.00     0          0          0          0
0                730.00     0          0          0          0
0                750.00     0          0          0          0
0                707.00     0          0          0          0
0                698.10     0          0          0          0
0                730.00     0          0          0          0
0                710.31     0          0          0          0
0                710.31     0          0          0          0
0                735.00     0          0          0          0
0                735.00     0          0          0          0
0                735.00     0          0          0          0
0                735.00     0          0          0          0
0                735.00     0          0          0          0
0                735.00     0          0          0          0
0                735.00     0          0          0          0
0                735.00     0          0          0          0
0                699.00     0          0          0          0
0                699.00     0          0          0          0
0                699.00     0          0          0          0
0                699.00     0          0          0          0
0                699.00     0          0          0          0
0                699.00     0          0          0          0

[STORAGE]
;;Name           Elev       MaxDepth   InitDepth  Shape      Curve/Params
;;-------------- ---------- ---------- ---------- ---------- ----------
0                699.00     0          0          FUNCTIONAL 13.00 0          0
0                705.19     0          0          FUNCTIONAL 13.00 0          0
0                710.00     0          0          FUNCTIONAL 32.00 0          0
0                692.79     -2.79      0          FUNCTIONAL 13.00 0          0
0                696.00     0          0          FUNCTIONAL 63.00 0          0
0                701.00     -1.00      0          FUNCTIONAL 13.00 0          0
0                698.00     0          0          FUNCTIONAL 13.00 0          0
0                713.12     -0.12      0          FUNCTIONAL 13.00 0          0
0                730.00     0          0          FUNCTIONAL 13.00 0          0
0                695.00     0          0          FUNCTIONAL 13.00 0          0
0                717.00     0          0          FUNCTIONAL 13.00 0          0
0                715.09     -0.09      0          FUNCTIONAL 13.00 0          0
0                714.65     -0.65      0          FUNCTIONAL 30.00 0          0
0                721.00     0          0          FUNCTIONAL 60.00 0          0
0                722.00     0          0          FUNCTIONAL 13.00 0          0
0                721.00     0          0          FUNCTIONAL 13.00 0          0
0                725.00     0          0          FUNCTIONAL 25.00 0          0
0                697.00     0          0          FUNCTIONAL 16.00 0          0
0                710.69     -0.69      0          FUNCTIONAL 13.00 0          0
0                699.00     0          0          FUNCTIONAL 13.00 0          0
0                716.00     0          0          FUNCTIONAL 13.00 0          0
0                719.00     0          0          FUNCTIONAL 13.00 0          0
0                714.04     -0.04      0          FUNCTIONAL 50.00 0          0
0                714.06     -0.06      0          FUNCTIONAL 13.00 0          0
0                710.31     -0.31      0          FUNCTIONAL 42.00 0          0
0                711.33     -0.33      0          FUNCTIONAL 26.00 0          0
0                699.31     -0.31      0          FUNCTIONAL 13.00 0          0
0                722.82     -0.82      0          FUNCTIONAL 26.00 0          0
0                711.00     0          0          FUNCTIONAL 26.00 0          0
0                700.00     0          0          FUNCTIONAL 13.00 0          0
0                722.00     0          0          FUNCTIONAL 13.00 0          0
0                713.00     0          0          FUNCTIONAL 13.00 0          0
0                724.00     0          0          FUNCTIONAL 0 0          0
0                730.00     0          0          FUNCTIONAL 0 0          0
0                750.00     0          0          FUNCTIONAL 0 0          0
0                720.00     0          0          FUNCTIONAL 0 0          0

[CONDUITS]
;;Name           From             To               Length     Roughness  InOffset   OutOffset  InitFlow   MaxFlow
;;-------------- ---------------- ---------------- ---------- ---------- ---------- ---------- ---------- ----------
609              0                0                500.00     0.0140     687.32     701.77     0          0
202              0                0                560.00     0.0140     701.77     701.47     0          0
203              0                0                558.00     0.0140     701.47     700.30     0          0
211              0                0                599.00     0.0140     700.30     699.16     0          0
213              0                0                337.00     0.0140     699.16     698.37     0          0
215              0                0                773.00     0.0140     698.37     696.93     0          0
217              0                0                632.00     0.0140     696.93     695.38     0          0
684              0                0                475.00     0.0140     694.94     692.06     0          0
221              0                0                300.00     0.0054     691.89     690.58     0          0
223              0                0                350.00     0.0140     690.58     690.52     0          0
225              0                0                550.00     0.0140     689.53     688.54     0          0
227              0                0                585.00     0.0140     688.54     687.55     0          0
229              0                0                300.00     0.0140     679.13     678.83     0          0
629              0                0                366.00     0.0140     680.49     680.19     0          0
239              0                0                602.00     0.0140     680.19     679.69     0          0
237              0                0                572.00     0.0140     679.69     679.21     0          0
235              0                0                394.00     0.0140     679.21     678.66     0          0
233              0                0                300.00     0.0090     679.21     679.13     0          0
253              0                0                708.00     0.0160     681.86     681.21     0          0
255              0                0                225.00     0.0160     682.96     682.29     0          0
MH008#1          MH008#2          0                771.00     0.0140     682.29     681.86     0          0
263              0                0                438.00     0.0160     687.07     686.57     0          0
717              0                0                480.00     0.0160     686.57     685.90     0          0
270              0                0                366.00     0.0160     688.43     688.17     0          0
269              0                0                763.00     0.0160     688.17     687.39     0          0
268              0                0                316.00     0.0160     687.39     687.07     0          0
275              0                0                423.00     0.0160     690.66     689.94     0          0
282              0                0                283.00     0.0160     694.37     694.00     0          0
281              0                0                567.00     0.0160     694.00     693.21     0          0
280              0                0                603.00     0.0160     693.21     692.35     0          0
279              0                0                617.00     0.0160     692.35     691.49     0          0
278              0                0                266.00     0.0160     691.49     690.66     0          0
291              0                0                575.00     0.0160     696.62     696.01     0          0
290              0                0                570.00     0.0160     696.01     695.41     0          0
289              0                0                505.00     0.0160     695.41     694.88     0          0
288              0                0                363.00     0.0160     694.88     694.37     0          0
638              0                0                436.00     0.0160     699.59     699.02     0          0
298              0                0                448.00     0.0160     699.02     698.21     0          0
297              0                0                463.00     0.0160     698.21     697.70     0          0
296              0                0                557.00     0.0160     697.70     696.62     0          0
596              0                0                300.00     0.0140     699.52     693.00     0          0
608              0                0                300.00     0.0140     687.32     680.00     0          0
319              0                0                371.00     0.0140     707.39     706.70     0          0
318              0                0                450.00     0.0140     706.70     704.87     0          0
317              0                0                300.00     0.0140     704.87     704.30     0          0
316              0                0                335.00     0.0140     704.30     699.82     0          0
332              0                0                300.00     0.0096     707.52     707.39     0          0
336              0                0                300.00     0.0054     707.39     707.52     0          0
340              0                0                565.00     0.0140     708.54     707.95     0          0
339              0                0                420.00     0.0140     707.95     707.62     0          0
338              0                0                416.00     0.0140     707.62     707.39     0          0
348              0                0                493.00     0.0140     709.74     708.91     0          0
364              0                0                513.00     0.0140     712.39     711.72     0          0
363              0                0                455.00     0.0140     711.72     711.35     0          0
370              0                0                300.00     0.0095     713.34     713.13     0          0
369              0                0                432.00     0.0140     713.13     712.57     0          0
368              0                0                382.00     0.0140     712.57     712.39     0          0
376              0                0                318.00     0.0140     714.54     714.25     0          0
375              0                0                482.00     0.0140     714.25     713.82     0          0
374              0                0                428.00     0.0140     713.82     713.34     0          0
640              0                0                300.00     0.0043     716.14     715.30     0          0
380              0                0                713.00     0.0140     715.16     714.54     0          0
386              0                0                341.00     0.0140     686.42     681.86     0          0
390              0                0                375.00     0.0140     691.20     689.74     0          0
388              0                0                370.00     0.0140     689.09     687.17     0          0
389              0                0                383.00     0.0140     687.17     686.92     0          0
394              0                0                331.00     0.0140     697.51     691.65     0          0
399              0                0                471.00     0.0140     702.18     700.43     0          0
398              0                0                286.00     0.0140     700.43     699.51     0          0
397              0                0                333.00     0.0140     699.51     698.18     0          0
396              0                0                370.00     0.0140     698.18     698.26     0          0
404              0                0                300.00     0.0120     703.62     702.28     0          0
563              0                0                300.00     0.0140     702.95     692.00     0          0
408              0                0                300.00     0.0052     704.06     703.37     0          0
412              0                0                531.00     0.0140     710.53     709.93     0          0
411              0                0                366.00     0.0140     709.61     706.47     0          0
410              0                0                349.00     0.0140     706.47     703.49     0          0
416              0                0                473.00     0.0140     711.27     710.53     0          0
565              0                0                300.00     0.0140     703.80     692.20     0          0
427              0                0                300.00     0.0028     715.19     714.63     0          0
426              0                0                425.00     0.0140     713.76     713.48     0          0
425              0                0                411.00     0.0140     713.48     712.93     0          0
424              0                0                328.00     0.0140     712.93     712.60     0          0
423              0                0                315.00     0.0140     712.60     712.19     0          0
422              0                0                315.00     0.0140     712.19     711.84     0          0
421              0                0                326.00     0.0140     711.84     711.42     0          0
420              0                0                297.00     0.0140     711.42     711.27     0          0
436              0                0                300.00     0.0087     692.91     692.09     0          0
631              0                0                267.00     0.0100     687.98     687.76     0          0
261              0                0                695.00     0.0160     685.90     684.98     0          0
440              0                0                300.00     0.0085     684.98     684.86     0          0
551              0                0                300.00     0.0140     688.58     681.90     0          0
605              0                0                271.00     0.0140     696.78     695.90     0          0
446              0                0                430.00     0.0140     695.90     692.91     0          0
604              0                0                300.00     0.0140     696.39     681.90     0          0
636              0                0                300.00     0.0108     704.24     704.14     0          0
457              0                0                320.00     0.0140     704.14     703.25     0          0
456              0                0                285.00     0.0140     701.35     700.75     0          0
455              0                0                534.00     0.0140     700.75     699.65     0          0
454              0                0                527.00     0.0140     699.65     698.72     0          0
589              0                0                300.00     0.0140     704.24     693.00     0          0
469              0                0                457.00     0.0140     692.79     692.57     0          0
468              0                0                980.00     0.0140     692.57     691.31     0          0
467              0                0                218.00     0.0140     691.21     691.29     0          0
466              0                0                284.00     0.0140     691.29     690.66     0          0
479              0                0                315.00     0.0140     681.96     681.33     0          0
478              0                0                300.00     0.0108     681.33     680.97     0          0
536              0                0                300.00     0.0140     684.40     682.00     0          0
486              0                0                362.00     0.0140     698.21     697.08     0          0
485              0                0                584.00     0.0140     697.08     684.58     0          0
493              0                0                417.00     0.0140     699.60     697.29     0          0
492              0                0                324.00     0.0140     697.29     695.35     0          0
491              0                0                329.00     0.0140     695.35     684.16     0          0
642              0                0                300.00     0.0140     699.82     682.00     0          0
502              0                0                355.00     0.0140     703.16     701.76     0          0
501              0                0                359.00     0.0140     701.76     700.31     0          0
500              0                0                362.00     0.0140     700.31     699.71     0          0
499              0                0                378.00     0.0140     699.71     698.21     0          0
510              0                0                466.00     0.0140     706.48     704.49     0          0
509              0                0                363.00     0.0140     704.49     703.16     0          0
510              0                0                300.00     0.0140     707.34     681.50     0          0
515              0                0                287.00     0.0140     705.32     704.61     0          0
515              0                0                300.00     0.0111     706.64     682.00     0          0
519              0                0                359.00     0.0140     703.41     702.08     0          0
519              0                0                240.00     0.0140     704.27     682.00     0          0
529              0                0                700.00     0.0140     700.91     700.58     0          0
528              0                0                950.00     0.0140     699.94     696.14     0          0
543              0                0                300.00     0.0140     678.89     678.59     0          0
556              0                0                560.00     0.0140     719.32     714.34     0          0
557              0                0                500.00     0.0140     714.34     712.59     0          0
558              0                0                340.00     0.0140     699.22     688.68     0          0
567              0                0                224.00     0.0140     704.11     704.07     0          0
569              0                0                200.00     0.0140     706.77     706.47     0          0