;; SWMM5 .inp converted from XPSWMM .xp file
;; Generated by XPSWMM Card Reader
;; Source format: XP_CARD | Original title: Five-Mile Creek Watershed, Leavenworth, Kansas

[TITLE]
;;Project Title/Notes
Five-Mile Creek Watershed, Leavenworth, Kansas

[OPTIONS]
FLOW_UNITS           CFS
INFILTRATION         HORTON
FLOW_ROUTING         DYNWAVE
LINK_OFFSETS         DEPTH
MIN_SLOPE            0.0
ALLOW_PONDING        NO
SKIP_STEADY_STATE    NO
ROUTING_STEP         00:00:60
VARIABLE_STEP        0.75
INERTIAL_DAMPING     PARTIAL
NORMAL_FLOW_LIMITED  BOTH
MAX_TRIALS           50

[JUNCTIONS]
;;Name           Elev       MaxDepth   InitDepth  SurDepth   Aponded
;;-------------- ---------- ---------- ---------- ---------- ----------
84550            904.34     0          0          0          0
84551            903.97     0          0          0          0
84552            901.28     0          0          0          0
84582            857.02     0          0          0          0
84583            866.18     0          0          0          0
84588            879.10     0          0          0          0
84589            877.72     0          0          0          0
84590            906.21     0          0          0          0
84591            906.77     0          0          0          0
84592            910.09     0          0          0          0
84593            911.12     0          0          0          0
84594            917.37     0          0          0          0
84595            921.03     0          0          0          0
84596            888.55     0          0          0          0
84597            901.94     0          0          0          0
84598            897.34     0          0          0          0
84599            897.12     0          0          0          0
84606            897.13     0          0          0          0
84607            887.84     0          0          0          0
84608            878.68     0          0          0          0
84609            878.51     0          0          0          0
84612            874.96     0          0          0          0
84618            859.65     0          0          0          0
84619            859.64     0          0          0          0
84621            855.64     0          0          0          0
84622            856.13     0          0          0          0
84623            853.57     0          0          0          0
84624            849.49     0          0          0          0
84625            849.34     0          0          0          0
84627            863.65     0          0          0          0
84628            846.87     0          0          0          0
84630            847.02     0          0          0          0
84632            893.59     0          0          0          0
84633            894.87     0          0          0          0
84637            914.52     0          0          0          0
84638            895.93     0          0          0          0
84639            894.04     0          0          0          0
84640            893.88     0          0          0          0
84641            893.45     0          0          0          0
84643            889.87     0          0          0          0
84644            870.27     0          0          0          0
84647            891.86     0          0          0          0
84648            888.43     0          0          0          0
84650            869.39     0          0          0          0
84661            852.18     0          0          0          0
84662            859.53     0          0          0          0
84666            845.43     0          0          0          0
84672            839.50     0          0          0          0
84673            840.12     0          0          0          0
84674            840.08     0          0          0          0
84675            841.41     0          0          0          0
84679            838.22     0          0          0          0
84680            843.93     0          0          0          0
84681            842.95     0          0          0          0
84683            833.86     0          0          0          0
84684            831.89     0          0          0          0
84685            822.33     0          0          0          0
84687            825.54     0          0          0          0
84689            818.98     0          0          0          0
84692            886.24     0          0          0          0
84695            883.98     0          0          0          0
84697            866.01     0          0          0          0
84702            872.13     0          0          0          0
84703            862.82     0          0          0          0
84706            859.20     0          0          0          0
84707            858.64     0          0          0          0
84708            858.67     0          0          0          0
84712            846.66     0          0          0          0
84713            838.17     0          0          0          0
84727            872.16     0          0          0          0
84731            859.34     0          0          0          0
84736            833.35     0          0          0          0
84737            832.04     0          0          0          0
84739            831.89     0          0          0          0
84740            832.65     0          0          0          0
84741            829.14     0          0          0          0
84747            844.65     0          0          0          0
84749            842.49     0          0          0          0
84751            813.47     0          0          0          0
84752            806.19     0          0          0          0
84757            818.83     0          0          0          0
84758            818.63     0          0          0          0
84759            817.00     0          0          0          0
84760            817.00     0          0          0          0
84765            818.00     0          0          0          0
84768            808.00     0          0          0          0
84769            811.78     0          0          0          0
84770            816.00     0          0          0          0
84771            825.46     0          0          0          0
84772            812.69     0          0          0          0
84773            812.70     0          0          0          0
84774            810.00     0          0          0          0
84775            839.90     0          0          0          0
84776            839.90     0          0          0          0
84777            833.40     0          0          0          0
84778            833.40     0          0          0          0
84782            820.00     0          0          0          0
84783            822.00     0          0          0          0
84784            879.90     0          0          0          0
84785            879.90     0          0          0          0
84791            849.47     0          0          0          0
84793            837.23     0          0          0          0
84794            832.32     0          0          0          0
84795            834.31     0          0          0          0
84796            843.22     0          0          0          0
84798            831.89     0          0          0          0
84800            829.26     0          0          0          0
84802            837.51     0          0          0          0
84803            819.20     0          0          0          0
84804            817.50     0          0          0          0
84806            890.68     0          0          0          0
84807            831.43     0          0          0          0
84808            833.51     0          0          0          0
84813            847.10     0          0          0          0
84814            847.10     0          0          0          0
84815            841.13     0          0          0          0
84816            841.14     0          0          0          0
84819            847.90     0          0          0          0
84820            847.90     0          0          0          0
84823            808.70     0          0          0          0
84824            807.64     0          0          0          0
84835            801.49     0          0          0          0
84838            832.71     0          0          0          0
84839            836.81     0          0          0          0
84840            860.68     0          0          0          0
84846            852.12     0          0          0          0
84868            815.31     0          0          0          0
84869            814.33     0          0          0          0
84870            813.94     0          0          0          0
84871            802.75     0          0          0          0
84872            802.47     0          0          0          0
84873            801.88     0          0          0          0
84874            801.49     0          0          0          0
84876            802.19     0          0          0          0
84885            784.16     0          0          0          0
84887            802.11     0          0          0          0
84892            814.39     0          0          0          0
84894            806.11     0          0          0          0
84895            803.14     0          0          0          0
84897            845.25     0          0          0          0
84899            828.78     0          0          0          0
84902            807.11     0          0          0          0
84903            798.68     0          0          0          0
84904            794.62     0          0          0          0
84905            793.87     0          0          0          0
84909            796.09     0          0          0          0
84917            839.42     0          0          0          0
84925            852.89     0          0          0          0
84931            839.43     0          0          0          0
84934            797.39     0          0          0          0
84935            798.37     0          0          0          0
84936            828.03     0          0          0          0
84937            786.49     0          0          0          0
84940            788.00     0          0          0          0
84941            786.85     0          0          0          0
84942            788.50     0          0          0          0
84943            787.50     0          0          0          0
84944            796.00     0          0          0          0
84945            790.00     0          0          0          0
84946            807.60     0          0          0          0
84947            810.00     0          0          0          0
84948            793.33     0          0          0          0
84949            793.22     0          0          0          0
84954            818.16     0          0          0          0
84956            827.18     0          0          0          0
84957            836.65     0          0          0          0
84959            837.69     0          0          0          0
84963            843.44     0          0          0          0
84972            855.69     0          0          0          0
84973            850.00     0          0          0          0
84975            849.49     0          0          0          0
84976            840.29     0          0          0          0
84977            840.54     0          0          0          0
84978            838.40     0          0          0          0
84979            846.00     0          0          0          0
84981            837.14     0          0          0          0
84982            840.82     0          0          0          0
84983            840.89     0          0          0          0
84987            832.82     0          0          0          0
84988            824.00     0          0          0          0
84989            820.81     0          0          0          0
84990            820.80     0          0          0          0
85009            853.33     0          0          0          0
85011            850.39     0          0          0          0
85012            856.63     0          0          0          0
85013            852.96     0          0          0          0
85014            846.80     0          0          0          0
85015            846.80     0          0          0          0
85017            848.00     0          0          0          0
85025            880.82     0          0          0          0
85026            880.45     0          0          0          0
85027            869.29     0          0          0          0
85028            863.88     0          0          0          0
85029            863.27     0          0          0          0
85031            858.74     0          0          0          0
85032            847.89     0          0          0          0
85035            874.13     0          0          0          0
85038            872.51     0          0          0          0
85041            870.10     0          0          0          0
85042            870.38     0          0          0          0
85043            860.18     0          0          0          0
85044            859.18     0          0          0          0
85045            858.50     0          0          0          0
85046            860.68     0          0          0          0
85047            852.70     0          0          0          0
85048            848.39     0          0          0          0
85055            847.75     0          0          0          0
85056            846.80     0          0          0          0
85061            851.69     0          0          0          0
85066            844.97     0          0          0          0
85069            844.44     0          0          0          0
85079            878.10     0          0          0          0
85080            878.10     0          0          0          0
85086            865.85     0          0          0          0
85103            868.10     0          0          0          0
85104            868.10     0          0          0          0
85107            886.50     0          0          0          0
85108            886.50     0          0          0          0
85109            889.58     0          0          0          0
85110            887.90     0          0          0          0
85111            887.15     0          0          0          0
85112            887.15     0          0          0          0
85124            805.33     0          0          0          0
85125            793.07     0          0          0          0
85126            791.89     0          0          0          0
85127            791.74     0          0          0          0
85132            804.00     0          0          0          0
85133            806.00     0          0          0          0
85138            826.00     0          0          0          0
85149            852.00     0          0          0          0
85150            842.96     0          0          0          0
85151            843.94     0          0          0          0
85152            844.00     0          0          0          0
85154            847.35     0          0          0          0
85155            850.00     0          0          0          0
85157            871.68     0          0          0          0
85159            868.74     0          0          0          0
85160            826.00     0          0          0          0
85161            821.00     0          0          0          0
85162            822.58     0          0          0          0
85163            822.00     0          0          0          0
85164            833.86     0          0          0          0
85165            827.00     0          0          0          0
85172            846.00     0          0          0          0
85173            842.00     0          0          0          0
85174            853.00     0          0          0          0
85183            856.55     0          0          0          0
85184            856.45     0          0          0          0
85185            857.00     0          0          0          0
85186            854.58     0          0          0          0
85188            852.77     0          0          0          0
85189            878.00     0          0          0          0
85190            874.00     0          0          0          0
85193            899.47     0          0          0          0
85194            899.47     0          0          0          0
85195            904.00     0          0          0          0
85197            934.38     0          0          0          0
85198            916.38     0          0          0          0
85199            901.51     0          0          0          0
85200            901.73     0          0          0          0
85202            899.98     0          0          0          0
85206            884.40     0          0          0          0
85208            882.68     0          0          0          0
85219            913.67     0          0          0          0
85222            903.46     0          0          0          0
85225            881.75     0          0          0          0
85229            873.17     0          0          0          0
85230            871.46     0          0          0          0
85238            893.19     0          0          0          0
85247            856.63     0          0          0          0
85248            849.43     0          0          0          0
85249            848.34     0          0          0          0
85251            877.20     0          0          0          0
85253            876.93     0          0          0          0
85257            869.22     0          0          0          0
85261            855.90     0          0          0          0
85262            861.34     0          0          0          0
85267            904.44     0          0          0          0
85269            900.07     0          0          0          0
85270            900.58     0          0          0          0
85271            900.22     0          0          0          0
85274            891.41     0          0          0          0
85275            891.41     0          0          0          0
85276            879.10     0          0          0          0
85277            878.19     0          0          0          0
85278            891.36     0          0          0          0
85280            873.09     0          0          0          0
85281            874.94     0          0          0          0
85282            868.50     0          0          0          0
85284            884.21     0          0          0          0
85286            884.59     0          0          0          0
85287            883.48     0          0          0          0
85288            881.43     0          0          0          0
85289            881.43     0          0          0          0
85290            876.87     0          0          0          0
85291            876.93     0          0          0          0
85292            866.20     0          0          0          0
85293            866.11     0          0          0          0
85294            860.00     0          0          0          0
85295            884.09     0          0          0          0
85296            884.20     0          0          0          0
85298            879.00     0          0          0          0
85299            878.37     0          0          0          0
85300            878.22     0          0          0          0
85302            883.30     0          0          0          0
85303            906.00     0          0          0          0
85304            906.00     0          0          0          0
85305            893.10     0          0          0          0
85306            890.95     0          0          0          0
85307            892.94     0          0          0          0
85310            891.76     0          0          0          0
85311            887.47     0          0          0          0
85312            891.21     0          0          0          0
85317            906.00     0          0          0          0
85319            923.77     0          0          0          0
85320            920.46     0          0          0          0
85323            920.23     0          0          0          0
85324            905.90     0          0          0          0
85325            902.50     0          0          0          0
85326            902.68     0          0          0          0
85327            902.00     0          0          0          0
85328            903.11     0          0          0          0
85331            914.66     0          0          0          0
85336            974.35     0          0          0          0
85337            961.07     0          0          0          0
85338            960.27     0          0          0          0
85339            957.30     0          0          0          0
85342            938.00     0          0          0          0
85344            936.18     0          0          0          0
85346            934.49     0          0          0          0
85347            938.00     0          0          0          0
85362            912.00     0          0          0          0
85365            909.94     0          0          0          0
85366            907.16     0          0          0          0
85367            907.32     0          0          0          0
85368            908.71     0          0          0          0
85369            910.00     0          0          0          0
85370            942.11     0          0          0          0
85371            942.26     0          0          0          0
85372            942.97     0          0          0          0
85373            942.10     0          0          0          0
85374            924.10     0          0          0          0
85375            924.10     0          0          0          0
85376            907.40     0          0          0          0
85377            907.40     0          0          0          0
85381            906.00     0          0          0          0
85386            923.10     0          0          0          0
85388            916.80     0          0          0          0
85389            919.20     0          0          0          0
85390            916.00     0          0          0          0
85391            931.13     0          0          0          0
85392            930.00     0          0          0          0
85394            931.00     0          0          0          0
85395            940.74     0          0          0          0
85396            939.80     0          0          0          0
85397            939.49     0          0          0          0
85401            942.26     0          0          0          0
85405            941.56     0          0          0          0
85406            941.48     0          0          0          0
85407            952.00     0          0          0          0
85408            936.00     0          0          0          0
85412            966.01     0          0          0          0
85413            966.43     0          0          0          0
85416            964.63     0          0          0          0
85417            965.81     0          0          0          0
85419            955.36     0          0          0          0
85421            947.55     0          0          0          0
85427            972.55     0          0          0          0
85437            1013.44    0          0          0          0
85439            973.08     0          0          0          0
85440            969.87     0          0          0          0
85442            955.23     0          0          0          0
85443            948.00     0          0          0          0
85459            912.57     0          0          0          0
85461            887.42     0          0          0          0
85463            885.86     0          0          0          0
85466            863.91     0          0          0          0
85470            873.96     0          0          0          0
85471            872.60     0          0          0          0
85473            865.34     0          0          0          0
85475            864.19     0          0          0          0
85507            793.11     0          0          0          0
85510            815.52     0          0          0          0
85511            795.59     0          0          0          0
85514            845.30     0          0          0          0
85515            844.00     0          0          0          0
85516            827.00     0          0          0          0
85529            832.95     0          0          0          0
85541            827.14     0          0          0          0
85543            813.81     0          0          0          0
85547            807.55     0          0          0          0
85550            803.15     0          0          0          0
85554            796.00     0          0          0          0
85555            797.79     0          0          0          0
85556            797.72     0          0          0          0
85564            835.92     0          0          0          0
85565            824.02     0          0          0          0
85568            821.75     0          0          0          0
85569            817.94     0          0          0          0
85570            819.90     0          0          0          0
85571            816.12     0          0          0          0
85575            816.01     0          0          0          0
85576            815.71     0          0          0          0
85579            815.12     0          0          0          0
85582            814.11     0          0          0          0
85583            812.26     0          0          0          0
85586            810.89     0          0          0          0
85588            809.91     0          0          0          0
85590            808.24     0          0          0          0
85593            806.51     0          0          0          0
85595            799.17     0          0          0          0
85598            794.13     0          0          0          0
85599            792.54     0          0          0          0
85602            790.12     0          0          0          0
85607            788.96     0          0          0          0
85609            787.54     0          0          0          0
85610            776.34     0          0          0          0
85611            797.56     0          0          0          0
85612            780.72     0          0          0          0
85642            857.28     0          0          0          0
85643            858.00     0          0          0          0
85644            854.00     0          0          0          0
85645            848.39     0          0          0          0
85648            850.00     0          0          0          0
85649            847.00     0          0          0          0
85659            858.20     0          0          0          0
85660            856.80     0          0          0          0
85662            855.70     0          0          0          0
85663            856.30     0          0          0          0
85664            850.40     0          0          0          0
85668            851.24     0          0          0          0
85669            848.62     0          0          0          0
85670            856.00     0          0          0          0
85671            871.77     0          0          0          0
85672            871.78     0          0          0          0
85673            868.00     0          0          0          0
85694            859.95     0          0          0          0
85695            857.65     0          0          0          0
85696            860.02     0          0          0          0
85697            849.58     0          0          0          0
85698            849.95     0          0          0          0
85700            826.42     0          0          0          0
85701            826.88     0          0          0          0
85723            819.27     0          0          0          0
85724            822.41     0          0          0          0
85734            816.14     0          0          0          0
85735            807.96     0          0          0          0
85737            816.80     0          0          0          0
85738            801.29     0          0          0          0
85739            793.49     0          0          0          0
85740            793.21     0          0          0          0
85743            784.99     0          0          0          0
85745            785.93     0          0          0          0
85746            784.38     0          0          0          0
85747            784.50     0          0          0          0
85760            788.19     0          0          0          0
85761            784.03     0          0          0          0
85768            777.58     0          0          0          0
85769            776.75     0          0          0          0
85770            775.95     0          0          0          0
85771            780.35     0          0          0          0
85774            781.62     0          0          0          0
85776            793.80     0          0          0          0
85778            787.15     0          0          0          0