;; SWMM5 .inp converted from XPSWMM .xp file
;; Generated by XPSWMM Card Reader
;; Source format: XP_CARD | Original title: CFB Comox Airforce Base Storm Sewer System

[TITLE]
;;Project Title/Notes
CFB Comox Airforce Base Storm Sewer System

[OPTIONS]
FLOW_UNITS           CMS
INFILTRATION         HORTON
FLOW_ROUTING         DYNWAVE
LINK_OFFSETS         DEPTH
MIN_SLOPE            0.0
ALLOW_PONDING        NO
SKIP_STEADY_STATE    NO
ROUTING_STEP         00:00:60
VARIABLE_STEP        0.75
INERTIAL_DAMPING     PARTIAL
NORMAL_FLOW_LIMITED  BOTH
MAX_TRIALS           100
HEAD_TOLERANCE       1e-5

[JUNCTIONS]
;;Name           Elev       MaxDepth   InitDepth  SurDepth   Aponded
;;-------------- ---------- ---------- ---------- ---------- ----------
601              36.78      0          0          0          0
602A             35.90      0          0          0          0
603              36.13      0          0          0          0
606A             34.94      0          0          0          0
607A             33.68      0          0          0          0
608A             33.00      0          0          0          0
612              33.08      0          0          0          0
700              32.00      0          0          0          0
703              29.44      0          0          0          0
704              27.32      0          0          0          0
622A             32.00      0          0          0          0
626A             33.00      0          0          0          0
623              32.17      0          0          0          0
705              27.03      0          0          0          0
706              26.67      0          0          0          0
707              24.79      0          0          0          0
708              22.95      0          0          0          0
PMQOUT           16.00      0          0          0          0
658              33.25      0          0          0          0
658A             33.00      0          0          0          0
655A             33.00      0          0          0          0
636A             33.00      0          0          0          0
635A             33.00      0          0          0          0
631A             32.00      0          0          0          0
662              28.00      0          0          0          0
674A             26.23      0          0          0          0
681              25.02      0          0          0          0
626              33.00      0          0          0          0
668              30.36      0          0          0          0
667A             30.20      0          0          0          0
669              29.23      0          0          0          0
670A             27.51      0          0          0          0
671A             27.00      0          0          0          0
684              26.00      0          0          0          0
683              25.72      0          0          0          0
685              21.99      0          0          0          0
754              19.04      0          0          0          0
753              18.83      0          0          0          0
750              18.96      0          0          0          0
749              18.76      0          0          0          0
748              18.77      0          0          0          0
744              19.22      0          0          0          0
743              19.51      0          0          0          0
ISL517           18.98      0          0          0          0
694              18.33      0          0          0          0
695A             19.02      0          0          0          0
755              19.05      0          0          0          0
757              18.82      0          0          0          0
758              18.65      0          0          0          0
ISL515           18.95      0          0          0          0
768              19.00      0          0          0          0
764              18.52      0          0          0          0
766              18.77      0          0          0          0
767              18.25      0          0          0          0
ISL518           18.13      0          0          0          0
434              24.00      0          0          0          0
426              20.60      0          0          0          0
424              20.00      0          0          0          0
423              20.00      0          0          0          0
492              19.00      0          0          0          0
414              19.00      0          0          0          0
765              18.53      0          0          0          0
756              18.84      0          0          0          0
696              19.11      0          0          0          0
685A             21.68      0          0          0          0
686              21.64      0          0          0          0
687              21.64      0          0          0          0
687B             20.48      0          0          0          0
687C             20.49      0          0          0          0
688              20.46      0          0          0          0
ISL532A          19.91      0          0          0          0
967              19.05      0          0          0          0
697              19.04      0          0          0          0
699              19.42      0          0          0          0
CB700            19.35      0          0          0          0
ISL532B          19.81      0          0          0          0
CB701            19.65      0          0          0          0
408              19.33      0          0          0          0
497              19.92      0          0          0          0
498              19.88      0          0          0          0
499              19.09      0          0          0          0
500              18.65      0          0          0          0
501              18.65      0          0          0          0
501OUT           16.00      0          0          0          0
PMQ2OUT          16.00      0          0          0          0
OUTFALL          16.00      0          0          0          0
734              19.22      0          0          0          0
735B             18.78      0          0          0          0
735C             18.91      0          0          0          0
736              18.78      0          0          0          0
737              18.73      0          0          0          0
MH705            19.10      0          0          0          0
CB708            18.71      0          0          0          0
CB707            18.84      0          0          0          0
MH704            18.79      0          0          0          0
733              18.72      0          0          0          0
420              19.73      0          0          0          0
393              20.00      0          0          0          0
ISL514           18.88      0          0          0          0
738              19.19      0          0          0          0
801              21.69      0          0          0          0
802              21.78      0          0          0          0
803              23.59      0          0          0          0

[CONDUITS]
;;Name           From             To               Length     Roughness  InOffset   OutOffset  InitFlow   MaxFlow
;;-------------- ---------------- ---------------- ---------- ---------- ---------- ---------- ---------- ----------
7067             706              707              101.62     0.0130     24.05      22.67      0          0
6027             602A             606A             36.98      0.0130     32.52      32.00      0          0
6078             607A             608A             85.38      0.0130     30.49      30.11      0          0
62623            626A             623              88.25      0.0130     30.32      30.03      0          0
7078             707              708              82.72      0.0130     22.65      21.51      0          0
6067             606A             607A             52.08      0.0130     32.00      30.64      0          0
62322A           623              622A             33.36      0.0130     30.01      29.93      0          0
72200            622A             700              108.86     0.0130     29.85      28.92      0          0
6012             601              602A             73.13      0.0130     34.27      32.69      0          0
6032             603              602A             63.09      0.0130     33.72      32.52      0          0
7003             700              703              181.95     0.0130     28.78      26.44      0          0
7034             703              704              67.18      0.0130     26.42      25.58      0          0
7045             704              705              55.22      0.0130     25.51      24.73      0          0
6128             612              608A             115.93     0.0130     31.30      30.24      0          0
7080             608A             700              139.09     0.0130     29.20      28.81      0          0
7056             705              706              45.34      0.0130     24.71      24.07      0          0
631A62           631A             662              88.44      0.0130     28.59      24.93      0          0
671A74A          671A             674A             88.90      0.0130     24.00      23.75      0          0
658A55A          658A             655A             27.91      0.0130     31.00      30.88      0          0
670A71A          670A             671A             74.46      0.0130     24.48      24.07      0          0
668A67A          668              667A             81.51      0.0130     28.09      26.68      0          0
62631A           626              631A             133.40     0.0130     29.34      28.59      0          0
635A31A          635A             631A             72.54      0.0130     29.95      28.70      0          0
636A35A          636A             635A             53.55      0.0130     30.42      30.00      0          0
668381           683              681              75.40      0.0130     23.37      23.10      0          0
66869            668              669              33.52      0.0130     28.09      26.89      0          0
667A62           667A             662              89.15      0.0130     26.68      24.99      0          0
66970A           669              670A             59.51      0.0130     26.89      24.48      0          0
68483            684              683              47.49      0.0130     23.77      23.37      0          0
655A36A          655A             636A             74.25      0.0130     30.88      30.42      0          0
66274A           ?                Node_66          80.96      0.0130     24.93      23.70      0          0
674A681          674A             681              110.61     0.0130     23.46      23.10      0          0
65858A           658              658A             36.57      0.0130     31.17      31.00      0          0
68185            681              685              71.40      0.0130     23.10      20.50      0          0
75455            754              755              11.83      0.0240     18.50      18.45      0          0
75453            754              753              51.32      0.0240     18.57      18.37      0          0
75049            750              749              44.85      0.0240     18.07      17.90      0          0
74958            749              758              13.86      0.0240     17.76      17.65      0          0
75350            753              750              101.50     0.0240     18.37      18.07      0          0
76465            764              765              59.09      0.0130     18.11      17.40      0          0
75867            758              767              71.76      0.0240     17.65      17.33      0          0
75556            755              756              51.88      0.0240     18.57      18.34      0          0
75657            756              757              79.45      0.0240     18.34      17.98      0          0
76667            766              767              52.07      0.0240     17.17      17.15      0          0
75758            757              758              68.95      0.0240     17.97      17.65      0          0
76768            767              768              58.67      0.0130     17.15      16.98      0          0
ISL515768        ISL515           768              70.48      0.0240     17.60      17.54      0          0
758ISL515        758              ISL515           59.85      0.0240     17.65      17.60      0          0
ISL518694        ISL518           694              94.57      0.0240     17.01      16.78      0          0
768ISL518        ISL518           768              15.93      0.0240     17.01      16.98      0          0
69495A           694              695A             100.36     0.0240     16.78      15.58      0          0
743694           743              694              94.33      0.0240     18.22      16.78      0          0
695A96           695A             696              12.53      0.0240     15.53      15.49      0          0
685A86           686              685A             12.15      0.0130     19.86      19.86      0          0
688ISL532A       688              ISL532A          64.97      0.0130     19.55      19.07      0          0
687C88           688              687C             7.80       0.0130     19.56      19.53      0          0
68787B           687              687B             25.37      0.0130     19.67      19.51      0          0
687B87C          687C             687B             5.28       0.0130     18.39      18.28      0          0
68687            686              687              32.13      0.0130     19.87      19.72      0          0
ISL532A697       ISL532A          697              51.38      0.0130     18.25      17.53      0          0
69697            696              697              40.99      0.0130     15.49      15.06      0          0
688697           688              697              115.11     0.0130     19.60      16.99      0          0
687B96           687B             696              93.06      0.0130     18.64      16.91      0          0
68585A           685              685A             34.64      0.0130     20.50      19.93      0          0
Link_367         ?                ?                47.12      0.0130     13.69      13.59      0          0
DITCH            501OUT           PMQ2OUT          9.05       0.0130     13.45      13.38      0          0
69799            697              699              33.36      0.0130     15.06      14.47      0          0
500501           500              501              80.39      0.0130     13.85      13.69      0          0
ISL532B701       CB701            ISL532B          4.29       0.0130     16.47      16.44      0          0
701497           CB701            497              77.41      0.0130     16.49      14.52      0          0
699ISL532B       699              ISL532B          59.19      0.0130     16.48      16.44      0          0
CB700701         CB700            CB701            55.42      0.0130     14.76      14.69      0          0
DITCH2           PMQ2OUT          PMQOUT           14.86      0.0130     13.38      13.08      0          0
49798            497              498              75.44      0.0130     14.52      14.38      0          0
699700           699              CB700            6.02       0.0130     15.06      14.47      0          0
49899            498              499              79.25      0.0130     14.38      14.19      0          0
499500           499              500              82.15      0.0130     13.89      13.85      0          0
701408           408              CB701            94.52      0.0130     16.47      16.44      0          0
501DITCH         501              501OUT           47.12      0.0130     13.69      13.45      0          0
OUTFALLDT        PMQOUT           OUTFALL          27.72      0.0130     13.08      12.81      0          0
408393           408              393              220.21     0.0130     16.13      15.79      0          0
694707           CB708            694              88.14      0.0130     16.86      16.78      0          0
42423            424              423              41.41      0.0130     19.14      18.59      0          0
501OUTPMQ        501OUT           PMQOUT           9.91       0.0130     13.50      13.30      0          0
393501OUT        393              501OUT           176.50     0.0130     15.79      13.59      0          0
708PMQOUT        708              PMQOUT           378.25     0.0240     21.41      14.31      0          0
43426            434              426              444.46     0.0130     22.58      19.14      0          0
704699           699              MH704            70.96      0.0130     16.48      16.48      0          0
42624            426              424              101.97     0.0130     19.14      18.59      0          0
735B35C          735C             735B             33.75      0.0130     17.62      17.58      0          0
70807            CB707            CB708            22.63      0.0130     16.82      16.76      0          0
70705            CB707            MH705            27.65      0.0130     16.82      16.68      0          0
41408            414              408              231.00     0.0130     16.98      16.28      0          0
73435B           734              735B             33.23      0.0130     18.00      16.69      0          0
73637            736              737              69.75      0.0130     17.52      17.39      0          0
70504            MH705            MH704            35.79      0.0130     16.68      16.48      0          0
735C36           735C             736              46.33      0.0130     17.62      17.26      0          0
42320            423              420              138.65     0.0130     18.48      18.09      0          0
73705            737              MH705            49.37      0.0130     17.39      16.68      0          0
42014            420              414              148.33     0.0130     18.09      16.98      0          0
74443            743              744              73.85      0.0240     18.72      18.66      0          0
74449            744              749              84.92      0.0240     18.66      17.92      0          0
74448            744              748              66.56      0.0240     18.66      18.21      0          0
74849            748              749              18.45      0.0240     18.21      17.92      0          0
765ISL514        765              ISL514           32.01      0.0240     17.40      17.26      0          0
ISL514766        ISL514           766              4.45       0.0130     16.96      16.82      0          0
73807            738              CB707            43.41      0.0130     17.89      17.74      0          0
801687           801              687              74.20      0.0130     20.35      19.80      0          0
80201            802              801              56.07      0.0130     20.90      20.35      0          0
80302            803              802              50.63      0.0130     22.35      20.90      0          0

[XSECTIONS]
;;Link           Shape        Geom1      Geom2      Geom3      Geom4      Barrels
;;-------------- ------------ ---------- ---------- ---------- ---------- ----------
7067             CIRCULAR     0.68       0          0          0          1
6027             CIRCULAR     0.30       0          0          0          1
6078             CIRCULAR     0.45       0          0          0          1
62623            CIRCULAR     0.38       0          0          0          1
7078             CIRCULAR     0.68       0          0          0          1
6067             CIRCULAR     0.30       0          0          0          1
62322A           CIRCULAR     0.38       0          0          0          1
72200            CIRCULAR     0.45       0          0          0          1
6012             CIRCULAR     0.20       0          0          0          1
6032             CIRCULAR     0.20       0          0          0          1
7003             CIRCULAR     0.60       0          0          0          1
7034             CIRCULAR     0.60       0          0          0          1
7045             CIRCULAR     0.68       0          0          0          1
6128             CIRCULAR     0.38       0          0          0          1
7080             CIRCULAR     0.60       0          0          0          1
7056             CIRCULAR     0.68       0          0          0          1
631A62           CIRCULAR     0.38       0          0          0          1
671A74A          CIRCULAR     0.38       0          0          0          1
658A55A          CIRCULAR     0.38       0          0          0          1
670A71A          CIRCULAR     0.30       0          0          0          1
668A67A          CIRCULAR     0.20       0          0          0          1
62631A           CIRCULAR     0.30       0          0          0          1
635A31A          CIRCULAR     0.38       0          0          0          1
636A35A          CIRCULAR     0.38       0          0          0          1
668381           CIRCULAR     0.30       0          0          0          1
66869            CIRCULAR     0.20       0          0          0          1
667A62           CIRCULAR     0.30       0          0          0          1
66970A           CIRCULAR     0.20       0          0          0          1
68483            CIRCULAR     0.20       0          0          0          1
655A36A          CIRCULAR     0.38       0          0          0          1
66274A           CIRCULAR     0.45       0          0          0          1
674A681          CIRCULAR     0.68       0          0          0          1
65858A           CIRCULAR     0.38       0          0          0          1
68185            CIRCULAR     0.45       0          0          0          1
75455            CIRCULAR     0.30       0          0          0          1
75453            CIRCULAR     0.30       0          0          0          1
75049            CIRCULAR     0.30       0          0          0          1
74958            CIRCULAR     0.45       0          0          0          1
75350            CIRCULAR     0.30       0          0          0          1
76465            CIRCULAR     0.20       0          0          0          1
75867            CIRCULAR     0.45       0          0          0          1
75556            CIRCULAR     0.30       0          0          0          1
75657            CIRCULAR     0.30       0          0          0          1
76667            CIRCULAR     0.60       0          0          0          1
75758            CIRCULAR     0.30       0          0          0          1
76768            CIRCULAR     0.60       0          0          0          1
ISL515768        CIRCULAR     0.30       0          0          0          1
758ISL515        CIRCULAR     0.30       0          0          0          1
ISL518694        CIRCULAR     0.90       0          0          0          1
768ISL518        CIRCULAR     0.60       0          0          0          1
69495A           CIRCULAR     0.90       0          0          0          1
743694           CIRCULAR     0.30       0          0          0          1
695A96           CIRCULAR     0.53       0          0          0          1
685A86           CIRCULAR     0.45       0          0          0          1
688ISL532A       CIRCULAR     0.60       0          0          0          1
687C88           CIRCULAR     0.45       0          0          0          1
68787B           CIRCULAR     0.45       0          0          0          1
687B87C          CIRCULAR     0.45       0          0          0          1
68687            CIRCULAR     0.45       0          0          0          1
ISL532A697       CIRCULAR     0.60       0          0          0          1
69697            CIRCULAR     0.53       0          0          0          1
688697           CIRCULAR     0.30       0          0          0          1
687B96           CIRCULAR     0.30       0          0          0          1
68585A           CIRCULAR     0.45       0          0          0          1
Link_367         CIRCULAR     1.20       0          0          0          1
DITCH            TRAPEZOIDAL  2.00       3.00       0          0          1
69799            CIRCULAR     0.75       0          0          0          1
500501           CIRCULAR     1.20       0          0          0          1
ISL532B701       CIRCULAR     0.60       0          0          0          1
701497           CIRCULAR     1.20       0          0          0          1
699ISL532B       CIRCULAR     0.60       0          0          0          1
CB700701         CIRCULAR     1.20       0          0          0          1
DITCH2           TRAPEZOIDAL  2.00       3.00       0          0          1
49798            CIRCULAR     1.20       0          0          0          1
699700           CIRCULAR     0.75       0          0          0          1
49899            CIRCULAR     1.20       0          0          0          1
499500           CIRCULAR     1.20       0          0          0          1
701408           CIRCULAR     0.60       0          0          0          1
501DITCH         CIRCULAR     1.20       0          0          0          1
OUTFALLDT        TRAPEZOIDAL  2.00       3.00       0          0          1
408393           CIRCULAR     0.75       0          0          0          1
694707           CIRCULAR     0.60       0          0          0          1
42423            CIRCULAR     0.25       0          0          0          1
501OUTPMQ        TRAPEZOIDAL  2.00       3.00       0          0          1
393501OUT        CIRCULAR     0.75       0          0          0          1
708PMQOUT        CIRCULAR     0.90       0          0          0          1
43426            CIRCULAR     0.25       0          0          0          1
704699           CIRCULAR     0.60       0          0          0          1
42624            CIRCULAR     0.25       0          0          0          1
735B35C          CIRCULAR     0.45       0          0          0          1
70807            CIRCULAR     0.60       0          0          0          1
70705            CIRCULAR     0.60       0          0          0          1
41408            CIRCULAR     0.38       0          0          0          1
73435B           CIRCULAR     0.45       0          0          0          1
73637            CIRCULAR     0.45       0          0          0          1
70504            CIRCULAR     0.60       0          0          0          1
735C36           CIRCULAR     0.45       0          0          0          1
42320            CIRCULAR     0.38       0          0          0          1
73705            CIRCULAR     0.60       0          0          0          1
42014            CIRCULAR     0.38       0          0          0          1
74443            CIRCULAR     0.30       0          0          0          1
74449            CIRCULAR     0.30       0          0          0          1
74448            CIRCULAR     0.30       0          0          0          1
74849            CIRCULAR     0.30       0          0          0          1
765ISL514        CIRCULAR     0.60       0          0          0          1
ISL514766        CIRCULAR     0.60       0          0          0          1
73807            CIRCULAR     0.20       0          0          0          1
801687           CIRCULAR     0.20       0          0          0          1
80201            CIRCULAR     0.20       0          0          0          1
80302            CIRCULAR     0.20       0          0          0          1

[LOSSES]
;;Link           Inlet      Outlet     Average    Flap Gate
;;-------------- ---------- ---------- ---------- ----------
7067             0          0          0          NO
6027             0          0          0          NO
6078             0          0          0          NO
62623            0          0          0          NO
7078             0          0          0          NO
6067             0          0          0          NO
62322A           0          0          0          NO
72200            0          0          0          NO
6012             0          0          0          NO
6032             0          0          0          NO
7003             0          0          0          NO
7034             0          0          0          NO
7045             0          0          0          NO
6128             0          0          0          NO
7080             0          0          0          NO
7056             0          0          0          NO
631A62           0          0          0          NO
671A74A          0          0          0          NO
658A55A          0          0          0          NO
670A71A          0          0          0          NO
668A67A          0          0          0          NO
62631A           0          0          0          NO
635A31A          0          0          0          NO
636A35A          0          0          0          NO
668381           0          0          0          NO
66869            0          0          0          NO
667A62           0          0          0          NO
66970A           0          0          0          NO
68483            0          0          0          NO
655A36A          0          0          0          NO
66274A           0          0          0          NO
674A681          0          0          0          NO
65858A           0          0          0          NO
68185            0          0          0          NO
75455            0          0          0          NO
75453            0          0          0          NO
75049            0          0          0          NO