;; SWMM5 .inp converted from XPSWMM .xp file
;; Generated by XPSWMM Card Reader
;; Source format: XP_CARD | Original title: Imperial River Entire Watershed - Rainfall from 7/01 to 10/31/95

[TITLE]
;;Project Title/Notes
Imperial River Entire Watershed - Rainfall from 7/01 to 10/31/95

[OPTIONS]
FLOW_UNITS           CFS
INFILTRATION         HORTON
FLOW_ROUTING         DYNWAVE
LINK_OFFSETS         DEPTH
MIN_SLOPE            0.0
ALLOW_PONDING        NO
SKIP_STEADY_STATE    NO
ROUTING_STEP         00:00:300
VARIABLE_STEP        0.75
INERTIAL_DAMPING     PARTIAL
NORMAL_FLOW_LIMITED  BOTH
MAX_TRIALS           50
HEAD_TOLERANCE       0.0033

[JUNCTIONS]
;;Name           Elev       MaxDepth   InitDepth  SurDepth   Aponded
;;-------------- ---------- ---------- ---------- ---------- ----------
13350            100.00     0          0          0          0
13450            100.00     0          0          0          0
15000            12.70      0          0          0          0
23816            100.00     0          0          0          0
27600            12.25      0          0          0          0
28600            17.95      0          0          0          0
29600            11.85      0          0          0          0
30600            16.60      0          0          0          0
31600            11.65      0          0          0          0
32700            12.60      0          0          0          0
33700            12.60      0          0          0          0
33759            100.00     0          0          0          0
33800            13.40      0          0          0          0
35000            13.75      0          0          0          0
36000            14.85      0          0          0          0
37150            12.60      0          0          0          0
37359            100.00     0          0          0          0
37500            33.00      0          0          0          0
37850            14.05      0          0          0          0
37905            100.00     0          0          0          0
37950            14.80      0          0          0          0
40000            15.75      0          0          0          0
42781            100.00     0          0          0          0
2000             5.50       0          0          0          0
3000             6.10       0          0          0          0
4000             6.60       0          0          0          0
5000             6.79       0          0          0          0
6000             4.00       0          0          0          0
7000             9.15       0          0          0          0
8000             13.35      0          0          0          0
9000             13.35      0          0          0          0
10000            9.75       0          0          0          0
11000            8.65       0          0          0          0
12000            13.65      0          0          0          0
13250            15.05      0          0          0          0
16000            8.35       0          0          0          0
17000            8.65       0          0          0          0
18000            10.30      0          0          0          0
19000            6.20       0          0          0          0
20000            11.65      0          0          0          0
21000            7.10       0          0          0          0
22000            8.60       0          0          0          0
23000            10.20      0          0          0          0
23750            9.25       0          0          0          0
24150            12.45      0          0          0          0
24217            100.00     0          0          0          0
24250            11.30      0          0          0          0
25000            12.15      0          0          0          0
26000            10.60      0          0          0          0
27000            15.75      0          0          0          0
27500            12.00      0          0          0          0
27532            100.00     0          0          0          0
24310            17.90      0          0          0          0
24350            17.90      0          0          0          0
39000            15.45      0          0          0          0
41000            15.30      0          0          0          0
42000            18.25      0          0          0          0
42750            27.40      0          0          0          0
320              14.00      0          0          0          0
322              14.00      0          0          0          0
324              14.00      0          0          0          0
327              14.00      0          0          0          0
329              12.40      0          0          0          0
42818            100.00     0          0          0          0
23834            100.00     0          0          0          0
24183            100.00     0          0          0          0
27568            100.00     0          0          0          0
33741            100.00     0          0          0          0
37235            100.00     0          0          0          0
37894            100.00     0          0          0          0
367              14.00      0          0          0          0

[CONDUITS]
;;Name           From             To               Length     Roughness  InOffset   OutOffset  InitFlow   MaxFlow
;;-------------- ---------------- ---------------- ---------- ---------- ---------- ---------- ---------- ----------
101              37950            37905            44.00      0          1.25       0.10       0          0
103              37850            37500            61.00      0          1.05       -1.15      0          0
104              37500            37359            161.00     0          -1.15      1.55       0          0
106              37150            36000            1000.00    0          -0.05      -1.85      0          0
107              36000            35000            1200.00    0          -1.85      -4.60      0          0
108              35000            33800            41.00      0          -4.60      -6.70      0          0
109              33800            33759            41.00      0          -6.70      -7.50      0          0
111              33700            32700            1100.00    0          -6.70      -5.65      0          0
112              32700            31600            1000.00    0          -5.65      -6.60      0          0
113              31600            30600            1000.00    0          -6.60      -5.50      0          0
114              30600            29600            1000.00    0          -5.50      -10.25     0          0
115              29600            28600            1000.00    0          -10.25     -5.05      0          0
116              28600            27600            1000.00    0          -5.05      -10.75     0          0
139              15000            13450            47.00      0          -7.05      -4.85      0          0
US41 Pier        US41 Deck        13350            106.00     0.0140     -4.70      -4.70      0          0
96               42750            42000            1000.00    0          4.20       -4.95      0          0
97               42000            41000            1000.00    0          4.95       2.15       0          0
118              27532            27500            500.00     0          -8.55      -9.55      0          0
119              27500            27000            1000.00    0          -9.55      -3.90      0          0
120              27000            26000            1000.00    0          -3.90      -9.05      0          0
121              26000            25000            650.00     0          -9.05      -5.35      0          0
122              25000            24350            38.00      0          -5.35      -9.10      0          0
123              24350            24310            57.00      0          0          0          0          0
124              24310            24250            33.00      0          -9.10      -9.10      0          0
125              24250            24217            33.00      0          -9.10      -6.10      0          0
129              23750            23000            1000.00    0          -6.30      -5.45      0          0
130              23000            22000            1000.00    0          -5.45      -7.05      0          0
131              22000            21000            1000.00    0          -7.05      -7.20      0          0
132              21000            20000            1000.00    0          -7.20      -3.80      0          0
133              20000            19000            1000.00    0          -3.80      -9.25      0          0
134              19000            18000            1000.00    0          -9.25      -4.70      0          0
135              18000            17000            1000.00    0          -4.70      -6.35      0          0
136              17000            16000            1000.00    0          -6.35      -5.60      0          0
142              13250            12000            1000.00    0          -4.70      -7.75      0          0
143              12000            11000            1000.00    0          -7.75      -12.75     0          0
144              11000            10000            1000.00    0          -12.75     -4.40      0          0
145              10000            9000             1000.00    0          -4.40      -8.05      0          0
146              9000             8000             1000.00    0          -8.05      -5.10      0          0
147              8000             7000             1000.00    0          -5.10      -9.30      0          0
148              7000             6000             1000.00    0          -9.30      -10.65     0          0
149              6000             5000             1000.00    0          -10.65     -8.16      0          0
150              5000             4000             1000.00    0          -8.16      -8.35      0          0
151              4000             3000             1000.00    0          -8.35      -7.90      0          0
152              3000             2000             2000.00    0          -7.90      -8.50      0          0
326              322              324              5300.00    0.0140     8.50       8.00       0          0
328              320              327              600.00     0.0140     7.00       5.50       0          0
330              327              329              900.00     0.0140     5.50       3.40       0          0
331              329              41000            400.00     0.0140     3.40       2.50       0          0
332              41000            40000            1000.00    0          2.15       4.00       0          0
333              40000            39000            1050.00    0          4.00       3.60       0          0
BonGr BR         BonGr Deck       42781            37.00      0.0140     3.15       3.15       0          0
342              24150            23834            66.00      0          -5.55      -5.60      0          0
344              13350            13250            1250.00    0          -4.70      -4.70      0          0
345              16000            15000            1550.00    0          -5.60      -7.05      0          0
346              23816            23750            750.00     0          -5.55      -6.30      0          0
348              39000            37950            1050.00    0          3.60       1.25       0          0
349              42781            42750            750.00     0          3.15       4.20       0          0
RR Opening       RR Deck          23816            18.00      0.0140     -5.60      -5.60      0          0
Old41 Opn.       Old41Deck        24183            34.00      0.0140     -6.10      -6.10      0          0
353              24183            24150            275.00     0          -6.10      -6.15      0          0
MathesonBR       Mth Deck         27532            36.00      0.0140     -8.55      -8.55      0          0
356              27600            27568            32.00      0          -10.75     -8.55      0          0
IBE Bridge       IBE Deck         33741            18.00      0.0140     -7.50      -7.50      0          0
359              33741            33700            1000.00    0          -7.50      -6.70      0          0
I-75 BR          I-75 Deck        37235            204.00     0.0140     1.60       1.60       0          0
362              37235            37150            85.00      0          1.55       -0.05      0          0
Orr BR           Orr Deck         37894            11.00      0.0140     0.10       0.10       0          0
365              37894            37850            350.00     0          0.10       1.05       0          0
BBRd Culv        324              320              120.00     0.0012     8.00       7.50       0          0

[PUMPS]
;;Name           From             To               PumpCurve  Status   Startup    Shutoff
;;-------------- ---------------- ---------------- ---------- -------- ---------- ----------
B14 Pump         367              322              PC_B14 Pump ON       13.50      8.00      

[CURVES]
;;Name           Type       X-Value    Y-Value
;;-------------- ---------- ---------- ----------
PC_B14 Pump      Pump3      0          0
;

[XSECTIONS]
;;Link           Shape        Geom1      Geom2      Geom3      Geom4      Barrels
;;-------------- ------------ ---------- ---------- ---------- ---------- ----------
101              IRREGULAR    0          0          0          0          1
103              IRREGULAR    0          0          0          0          1
104              IRREGULAR    0          0          0          0          1
106              IRREGULAR    0          0          0          0          1
107              IRREGULAR    0          0          0          0          1
108              IRREGULAR    0          0          0          0          1
109              IRREGULAR    0          0          0          0          1
111              IRREGULAR    0          0          0          0          1
112              IRREGULAR    0          0          0          0          1
113              IRREGULAR    0          0          0          0          1
114              IRREGULAR    0          0          0          0          1
115              IRREGULAR    0          0          0          0          1
116              IRREGULAR    0          0          0          0          1
139              IRREGULAR    0          0          0          0          1
US41 Pier        RECT_CLOSED  24.40      68.00      0          0          12
96               IRREGULAR    0          0          0          0          1
97               IRREGULAR    0          0          0          0          1
118              IRREGULAR    0          0          0          0          1
119              IRREGULAR    0          0          0          0          1
120              IRREGULAR    0          0          0          0          1
121              IRREGULAR    0          0          0          0          1
122              IRREGULAR    0          0          0          0          1
123              IRREGULAR    0          0          0          0          1
124              IRREGULAR    0          0          0          0          1
125              IRREGULAR    0          0          0          0          1
129              IRREGULAR    0          0          0          0          1
130              IRREGULAR    0          0          0          0          1
131              IRREGULAR    0          0          0          0          1
132              IRREGULAR    0          0          0          0          1
133              IRREGULAR    0          0          0          0          1
134              IRREGULAR    0          0          0          0          1
135              IRREGULAR    0          0          0          0          1
136              IRREGULAR    0          0          0          0          1
142              IRREGULAR    0          0          0          0          1
143              IRREGULAR    0          0          0          0          1
144              IRREGULAR    0          0          0          0          1
145              IRREGULAR    0          0          0          0          1
146              IRREGULAR    0          0          0          0          1
147              IRREGULAR    0          0          0          0          1
148              IRREGULAR    0          0          0          0          1
149              IRREGULAR    0          0          0          0          1
150              IRREGULAR    0          0          0          0          1
151              IRREGULAR    0          0          0          0          1
152              IRREGULAR    0          0          0          0          1
326              TRAPEZOIDAL  5.50       40.00      0          0          1
328              TRAPEZOIDAL  7.00       21.00      0          0          1
330              TRAPEZOIDAL  8.50       15.00      0          0          1
331              TRAPEZOIDAL  9.00       8.00       0          0          1
332              IRREGULAR    0          0          0          0          1
333              IRREGULAR    0          0          0          0          1
BonGr BR         RECT_CLOSED  13.20      20.00      0          0          2
342              IRREGULAR    0          0          0          0          1
344              IRREGULAR    0          0          0          0          1
345              IRREGULAR    0          0          0          0          1
346              IRREGULAR    0          0          0          0          1
348              IRREGULAR    0          0          0          0          1
349              IRREGULAR    0          0          0          0          1
RR Opening       RECT_CLOSED  12.50      93.00      0          0          1
Old41 Opn.       RECT_CLOSED  16.00      31.00      0          0          3
353              IRREGULAR    0          0          0          0          1
MathesonBR       RECT_CLOSED  18.10      40.00      0          0          2
356              IRREGULAR    0          0          0          0          1
IBE Bridge       RECT_CLOSED  18.90      14.70      0          0          3
359              IRREGULAR    0          0          0          0          1
I-75 BR          RECT_CLOSED  15.70      50.00      0          0          6
362              IRREGULAR    0          0          0          0          1
Orr BR           RECT_CLOSED  12.20      7.60       0          0          1
365              IRREGULAR    0          0          0          0          1
BBRd Culv        CIRCULAR     6.00       0          0          0          3

[LOSSES]
;;Link           Inlet      Outlet     Average    Flap Gate
;;-------------- ---------- ---------- ---------- ----------
101              0          0          0          NO
103              0          0          0          NO
104              0          0          0          NO
106              0          0          0          NO
107              0          0          0          NO
108              0          0          0          NO
109              0          0          0          NO
111              0          0          0          NO
112              0          0          0          NO
113              0          0          0          NO
114              0          0          0          NO
115              0          0          0          NO
116              0          0          0          NO
139              0          0          0          NO
US41 Pier        0          0          0          NO
96               0          0          0          NO
97               0          0          0          NO
118              0          0          0          NO
119              0          0          0          NO
120              0          0          0          NO
121              0          0          0          NO
122              0          0          0          NO
123              0          0          0          NO
124              0          0          0          NO
125              0          0          0          NO
129              0          0          0          NO
130              0          0          0          NO
131              0          0          0          NO
132              0          0          0          NO
133              0          0          0          NO
134              0          0          0          NO
135              0          0          0          NO
136              0          0          0          NO
142              0          0          0          NO
143              0          0          0          NO
144              0          0          0          NO
145              0          0          0          NO
146              0          0          0          NO
147              0          0          0          NO
148              0          0          0          NO
149              0          0          0          NO
150              0          0          0          NO
151              0          0          0          NO
152              0          0          0          NO
326              0          0          0          NO
328              0          0          0          NO
330              0          0          0          NO
331              0          0          0          NO
332              0          0          0          NO
333              0          0          0          NO
BonGr BR         0          0          0          NO
342              0          0          0          NO
344              0          0          0          NO
345              0          0          0          NO
346              0          0          0          NO
348              0          0          0          NO
349              0          0          0          NO
RR Opening       0          0          0          NO
Old41 Opn.       0          0          0          NO
353              0          0          0          NO
MathesonBR       0          0          0          NO
356              0          0          0          NO
IBE Bridge       0          0          0          NO
359              0          0          0          NO
I-75 BR          0          0          0          NO
362              0          0          0          NO
Orr BR           0          0          0          NO
365              0          0          0          NO
BBRd Culv        0          0          0          NO

[COORDINATES]
;;Node           X-Coord            Y-Coord
;;-------------- ------------------ ------------------
13350            49.33              60.14             
13450            49.35              60.30             
15000            47.99              61.98             
23816            46.99              74.27             
27600            48.64              79.54             
28600            49.25              80.25             
29600            49.79              81.96             
30600            50.81              82.57             
31600            51.35              83.31             
32700            51.93              83.96             
33700            51.96              84.43             
33759            52.03              84.75             
33800            52.14              85.00             
35000            52.81              86.29             
36000            52.39              87.72             
37150            52.39              89.29             
37359            52.36              89.89             
37500            52.31              90.09             
37850            52.13              90.41             
37905            52.08              90.73             
37950            52.08              90.85             
40000            52.54              93.80             
42781            49.77              96.26             
2000             51.37              46.25             
3000             51.14              47.85             
4000             50.78              49.48             
5000             49.04              50.34             
6000             50.19              51.19             
7000             51.53              51.40             
8000             50.36              52.73             
9000             50.92              54.24             
10000            51.47              55.81             
11000            52.34              57.27             
12000            50.85              58.28             
13250            49.36              59.96             
16000            47.81              63.48             
17000            47.01              64.94             
18000            47.00              66.24             
19000            48.12              67.53             
20000            47.90              68.87             
21000            48.32              70.30             
22000            48.17              71.83             
23000            47.76              73.20             
23750            47.07              74.14             
24150            46.94              74.68             
24217            46.88              74.99             
24250            46.80              75.29             
25000            46.63              76.04             
26000            46.82              77.68             
27000            48.13              78.70             
27500            48.43              78.92             
27532            48.68              79.19             
24310            46.75              75.47             
24350            46.70              75.58             
39000            52.54              92.17             
41000            52.36              95.30             
42000            50.21              95.30             
42750            49.77              95.95             
320              55.57              96.09             
322              55.80              105.07            
324              55.89              96.89             
327              55.61              95.34             
329              54.02              95.32             
42818            49.76              96.43             
23834            46.97              74.41             
24183            46.94              74.82             
27568            48.47              79.38             
33741            51.96              84.60             
37235            52.38              89.71             
37894            52.08              90.57             
367              56.23              105.94            

[MAP]
DIMENSIONS 46.63 46.25 56.23 105.94
Units      None

[REPORT]
INPUT            YES
SUBCATCHMENTS    ALL
NODES            ALL
LINKS            ALL



