;; SWMM5 .inp converted from XPSWMM .xp file
;; Generated by XPSWMM Card Reader
;; Source format: XP_CARD | Original title: USA - UPPER ROCK CREEK WITHOUT BETHANY POND

[TITLE]
;;Project Title/Notes
USA - UPPER ROCK CREEK WITHOUT BETHANY POND

[OPTIONS]
FLOW_UNITS           CFS
INFILTRATION         HORTON
FLOW_ROUTING         DYNWAVE
LINK_OFFSETS         DEPTH
MIN_SLOPE            0.0
ALLOW_PONDING        NO
SKIP_STEADY_STATE    NO
INERTIAL_DAMPING     PARTIAL
NORMAL_FLOW_LIMITED  BOTH

[JUNCTIONS]
;;Name           Elev       MaxDepth   InitDepth  SurDepth   Aponded
;;-------------- ---------- ---------- ---------- ---------- ----------
DUMMY1           0          0          0          0          0
DUMMY2           0          0          0          0          0
2300             0          0          0          0          0
DUMMY3           0          0          0          0          0
2210             0          0          0          0          0
2200             0          0          0          0          0
2100             0          0          0          0          0
200              0          0          0          0          0
1900             0          0          0          0          0
1800             0          0          0          0          0
DUMMY4           0          0          0          0          0
DUMMY5           0          0          0          0          0
DUMMY6           0          0          0          0          0
1700             0          0          0          0          0
DUMMY7           0          0          0          0          0
DUMMY8           0          0          0          0          0
DUMMY9           0          0          0          0          0
DUMMY10          0          0          0          0          0
DUMMY11          0          0          0          0          0
DUMMY12          0          0          0          0          0
1600             0          0          0          0          0
1500             0          0          0          0          0
1310             0          0          0          0          0
1300             0          0          0          0          0
1110             0          0          0          0          0
1100             0          0          0          0          0
910              0          0          0          0          0
900              0          0          0          0          0
800              0          0          0          0          0
700              0          0          0          0          0
DUMMY13          0          0          0          0          0
600              0          0          0          0          0
500              0          0          0          0          0
400              0          0          0          0          0
300              0          0          0          0          0
DUMMY14          0          0          0          0          0
DUMMY15          0          0          0          0          0
DUMMY16          0          0          0          0          0
DUMMY17          0          0          0          0          0
DUMMY18          0          0          0          0          0
DUMMY19          0          0          0          0          0
DUMMY20          0          0          0          0          0
DUMMY21          0          0          0          0          0
DUMMY22          0          0          0          0          0
DUMMY23          0          0          0          0          0
DUMMY24          0          0          0          0          0
DUMMY25          0          0          0          0          0
DUMMY26          0          0          0          0          0
DUMMY27          0          0          0          0          0
DUMMY28          0          0          0          0          0
DUMMY29          0          0          0          0          0
DUMMY30          0          0          0          0          0
DUMMY31          0          0          0          0          0
DUMMY32          0          0          0          0          0
DUMMY33          0          0          0          0          0

[CONDUITS]
;;Name           From             To               Length     Roughness  InOffset   OutOffset  InitFlow   MaxFlow
;;-------------- ---------------- ---------------- ---------- ---------- ---------- ---------- ---------- ----------
9400             DUMMY14          DUMMY1           0          0          0          0          0          0
9300             DUMMY1           DUMMY2           0          0          0          0          0          0
2320             DUMMY2           2300             0          0          0          0          0          0
9200             DUMMY15          DUMMY3           0          0          0          0          0          0
2310             DUMMY3           2300             0          0          0          0          0          0
2220             DUMMY16          2210             0          0          0          0          0          0
9100             DUMMY17          2200             0          0          0          0          0          0
2110             DUMMY18          2100             0          0          0          0          0          0
1910             DUMMY19          1900             0          0          0          0          0          0
1810             DUMMY20          1800             0          0          0          0          0          0
9072             DUMMY21          DUMMY4           0          0          0          0          0          0
9070             DUMMY4           DUMMY5           0          0          0          0          0          0
9060             DUMMY5           DUMMY6           0          0          0          0          0          0
9000             DUMMY6           1700             0          0          0          0          0          0
9062             DUMMY22          DUMMY5           0          0          0          0          0          0
9054             DUMMY23          DUMMY7           0          0          0          0          0          0
9050             DUMMY7           DUMMY8           0          0          0          0          0          0
9040             DUMMY8           DUMMY9           0          0          0          0          0          0
9030             DUMMY9           DUMMY6           0          0          0          0          0          0
9052             DUMMY24          DUMMY7           0          0          0          0          0          0
9042             DUMMY25          DUMMY8           0          0          0          0          0          0
9032             DUMMY26          DUMMY9           0          0          0          0          0          0
9024             DUMMY27          DUMMY10          0          0          0          0          0          0
9020             DUMMY10          DUMMY6           0          0          0          0          0          0
9022             DUMMY28          DUMMY10          0          0          0          0          0          0
9014             DUMMY29          DUMMY11          0          0          0          0          0          0
9012             DUMMY11          DUMMY12          0          0          0          0          0          0
9010             DUMMY12          DUMMY6           0          0          0          0          0          0
1510             DUMMY30          1500             0          0          0          0          0          0
920              DUMMY31          910              0          0          0          0          0          0
820              DUMMY32          800              0          0          0          0          0          0
620              DUMMY33          DUMMY13          0          0          0          0          0          0
610              DUMMY13          600              0          0          0          0          0          0

[XSECTIONS]
;;Link           Shape        Geom1      Geom2      Geom3      Geom4      Barrels
;;-------------- ------------ ---------- ---------- ---------- ---------- ----------
9400             CIRCULAR     0          0          0          0          1
9300             CIRCULAR     0          0          0          0          1
2320             CIRCULAR     0          0          0          0          1
9200             CIRCULAR     0          0          0          0          1
2310             CIRCULAR     0          0          0          0          1
2220             CIRCULAR     0          0          0          0          1
9100             CIRCULAR     0          0          0          0          1
2110             CIRCULAR     0          0          0          0          1
1910             CIRCULAR     0          0          0          0          1
1810             CIRCULAR     0          0          0          0          1
9072             CIRCULAR     0          0          0          0          1
9070             CIRCULAR     0          0          0          0          1
9060             CIRCULAR     0          0          0          0          1
9000             CIRCULAR     0          0          0          0          1
9062             CIRCULAR     0          0          0          0          1
9054             CIRCULAR     0          0          0          0          1
9050             CIRCULAR     0          0          0          0          1
9040             CIRCULAR     0          0          0          0          1
9030             CIRCULAR     0          0          0          0          1
9052             CIRCULAR     0          0          0          0          1
9042             CIRCULAR     0          0          0          0          1
9032             CIRCULAR     0          0          0          0          1
9024             CIRCULAR     0          0          0          0          1
9020             CIRCULAR     0          0          0          0          1
9022             CIRCULAR     0          0          0          0          1
9014             CIRCULAR     0          0          0          0          1
9012             CIRCULAR     0          0          0          0          1
9010             CIRCULAR     0          0          0          0          1
1510             CIRCULAR     0          0          0          0          1
920              CIRCULAR     0          0          0          0          1
820              CIRCULAR     0          0          0          0          1
620              CIRCULAR     0          0          0          0          1
610              CIRCULAR     0          0          0          0          1

[LOSSES]
;;Link           Inlet      Outlet     Average    Flap Gate
;;-------------- ---------- ---------- ---------- ----------
9400             0          0          0          NO
9300             0          0          0          NO
2320             0          0          0          NO
9200             0          0          0          NO
2310             0          0          0          NO
2220             0          0          0          NO
9100             0          0          0          NO
2110             0          0          0          NO
1910             0          0          0          NO
1810             0          0          0          NO
9072             0          0          0          NO
9070             0          0          0          NO
9060             0          0          0          NO
9000             0          0          0          NO
9062             0          0          0          NO
9054             0          0          0          NO
9050             0          0          0          NO
9040             0          0          0          NO
9030             0          0          0          NO
9052             0          0          0          NO
9042             0          0          0          NO
9032             0          0          0          NO
9024             0          0          0          NO
9020             0          0          0          NO
9022             0          0          0          NO
9014             0          0          0          NO
9012             0          0          0          NO
9010             0          0          0          NO
1510             0          0          0          NO
920              0          0          0          NO
820              0          0          0          NO
620              0          0          0          NO
610              0          0          0          NO

[COORDINATES]
;;Node           X-Coord            Y-Coord
;;-------------- ------------------ ------------------
DUMMY1           342.67             -5.66             
DUMMY2           358.74             2.60              
2300             378.37             -6.13             
DUMMY3           399.66             1.48              
2210             417.51             -4.49             
2200             435.04             0.82              
2100             458.74             1.35              
200              480.16             -6.56             
1900             344.55             22.84             
1800             356.27             18.64             
DUMMY4           383.64             17.44             
DUMMY5           392.86             24.35             
DUMMY6           420.45             19.07             
1700             440.07             18.04             
DUMMY7           460.83             23.00             
DUMMY8           481.43             17.84             
DUMMY9           341.09             44.79             
DUMMY10          357.53             41.57             
DUMMY11          374.97             34.40             
DUMMY12          399.77             42.90             
1600             413.27             38.43             
1500             431.89             32.18             
1310             464.35             39.38             
1300             482.46             38.83             
1110             336.74             62.95             
1100             362.41             60.50             
910              383.39             62.93             
900              395.21             53.27             
800              412.60             55.96             
700              440.58             55.59             
DUMMY13          455.34             53.67             
600              475.67             62.83             
500              335.15             79.74             
400              363.11             75.15             
300              384.21             71.84             
DUMMY14          393.76             82.46             
DUMMY15          423.49             74.60             
DUMMY16          444.83             79.12             
DUMMY17          459.02             73.32             
DUMMY18          475.96             81.75             
DUMMY19          344.04             98.99             
DUMMY20          362.35             97.58             
DUMMY21          381.18             101.01            
DUMMY22          401.95             97.58             
DUMMY23          417.99             99.45             
DUMMY24          442.90             100.12            
DUMMY25          452.31             98.47             
DUMMY26          472.81             101.00            
DUMMY27          340.58             114.32            
DUMMY28          351.88             114.17            
DUMMY29          371.84             117.86            
DUMMY30          396.77             113.10            
DUMMY31          419.24             113.06            
DUMMY32          444.38             124.11            
DUMMY33          461.19             123.63            

[MAP]
DIMENSIONS 335.15 -6.56 482.46 124.11
Units      None

[REPORT]
INPUT            YES
SUBCATCHMENTS    ALL
NODES            ALL
LINKS            ALL



