;; SWMM5 .inp converted from XPSWMM .xp file
;; Generated by XPSWMM Card Reader
;; Source format: XP_CARD | Original title: (none)

[TITLE]
;;Project Title/Notes
Converted from XPSWMM .xp file

[OPTIONS]
FLOW_UNITS           CMS
INFILTRATION         HORTON
FLOW_ROUTING         DYNWAVE
LINK_OFFSETS         DEPTH
MIN_SLOPE            0.0
ALLOW_PONDING        NO
SKIP_STEADY_STATE    NO
ROUTING_STEP         00:00:60
VARIABLE_STEP        0.75
INERTIAL_DAMPING     PARTIAL
NORMAL_FLOW_LIMITED  BOTH
MAX_TRIALS           50

[JUNCTIONS]
;;Name           Elev       MaxDepth   InitDepth  SurDepth   Aponded
;;-------------- ---------- ---------- ---------- ---------- ----------
57               114.10     0          0          0          0
71               113.51     0          0          0          0
80               113.71     0          0          0          0
81               113.06     0          0          0          0
85               114.52     0          0          0          0
69               130.50     0          0          0          0
76               124.81     0          0          0          0
24               137.25     0          0          0          0
40               131.92     0          0          0          0
93               128.76     0          0          0          0
95               126.38     0          0          0          0
78               135.80     0          0          0          0
67               136.67     0          0          0          0
74               130.28     0          0          0          0
72               130.56     0          0          0          0
53               138.97     0          0          0          0
52               140.08     0          0          0          0
44               147.02     0          0          0          0
19               142.46     0          0          0          0
89               136.73     0          0          0          0
75               113.57     0          0          0          0
68               113.94     0          0          0          0
65               118.77     0          0          0          0
61               121.19     0          0          0          0
66               121.33     0          0          0          0
51               127.10     0          0          0          0
1090             124.36     0          0          0          0
50               128.49     0          0          0          0
25               135.81     0          0          0          0
20               139.98     0          0          0          0
77               124.73     0          0          0          0
70               124.45     0          0          0          0
90               120.31     0          0          0          0
88               118.00     0          0          0          0
73               122.32     0          0          0          0
54               127.03     0          0          0          0
91               122.00     0          0          0          0
92               123.05     0          0          0          0
94               124.86     0          0          0          0
96               126.15     0          0          0          0
4                95.71      0          0          0          0
2                95.20      0          0          0          0
34               84.61      0          0          0          0
39               81.59      0          0          0          0
37               97.35      0          0          0          0
27               94.95      0          0          0          0
49               100.86     0          0          0          0
56               104.53     0          0          0          0
63               107.30     0          0          0          0
58               105.38     0          0          0          0
83               113.13     0          0          0          0
64               107.41     0          0          0          0
5                106.55     0          0          0          0
3                106.97     0          0          0          0
1                109.10     0          0          0          0
26               89.56      0          0          0          0
55               95.13      0          0          0          0
87               95.47      0          0          0          0
97               103.01     0          0          0          0
22               97.39      0          0          0          0
30               93.73      0          0          0          0
11               105.28     0          0          0          0
28               95.48      0          0          0          0
21               104.32     0          0          0          0
31               87.13      0          0          0          0
17               83.07      0          0          0          0
14               83.42      0          0          0          0
9                83.61      0          0          0          0
16               79.39      0          0          0          0
12               79.27      0          0          0          0
15               84.06      0          0          0          0
13               88.07      0          0          0          0
8                87.78      0          0          0          0
6                87.89      0          0          0          0
7                92.53      0          0          0          0
48               83.22      0          0          0          0
41               80.95      0          0          0          0
59               84.95      0          0          0          0
60               84.80      0          0          0          0
62               84.95      0          0          0          0
79               86.75      0          0          0          0
46               77.70      0          0          0          0
45               79.54      0          0          0          0
203              77.29      0          0          0          0
1004             76.00      0          0          0          0
1073             124.36     0          0          0          0

[CONDUITS]
;;Name           From             To               Length     Roughness  InOffset   OutOffset  InitFlow   MaxFlow
;;-------------- ---------------- ---------------- ---------- ---------- ---------- ---------- ---------- ----------
151              81               64               180.52     0.0250     109.96     104.77     0          0
150              64               58               32.84      0.0250     104.77     103.18     0          0
128              73               90               170.44     0.0250     120.68     117.56     0          0
148              56               49               121.54     0.0250     103.00     99.66      0          0
102              69               76               76.17      0.0250     127.95     123.41     0          0
181              7                6                85.63      0.0250     91.00      86.91      0          0
179              8                13               63.38      0.0250     85.50      85.00      0          0
159              22               30               62.17      0.0250     96.10      92.53      0          0
111              44               52               95.72      0.0250     145.82     138.88     0          0
CUL1             1090             1073             30.60      0.0250     121.22     120.95     0          0
180              6                8                10.98      0.0250     85.90      85.50      0          0
145              83               63               182.70     0.0250     109.63     104.54     0          0
174              9                14               35.27      0.0250     82.42      82.02      0          0
158              97               87               255.29     0.0250     101.81     93.80      0          0
157              87               55               208.03     0.0250     93.80      92.47      0          0
141              37               27               89.68      0.0250     96.15      93.75      0          0
2002             46               203              123.59     0.0250     76.50      75.09      0          0
184              59               48               61.56      0.0250     83.13      82.02      0          0
160              11               22               128.05     0.0250     103.00     96.30      0          0
105              78               67               80.21      0.0250     133.60     132.65     0          0
191.1            191.2            46               32.74      0.0250     78.34      76.50      0          0
177              15               14               18.62      0.0250     82.68      82.02      0          0
172              27               28               10.99      0.0250     93.75      93.28      0          0
147              49               37               66.50      0.0250     99.66      96.15      0          0
137              95               96               69.49      0.0250     123.91     123.61     0          0
134              92               91               41.82      0.0250     120.79     118.20     0          0
126              76               77               10.15      0.0250     123.41     123.12     0          0
122              50               51               16.35      0.0250     127.09     125.76     0          0
110              52               53               17.58      0.0250     138.88     137.20     0          0
100              80               81               34.94      0.0250     110.75     109.96     0          0
186              62               60               9.25       0.0250     83.70      83.60      0          0
178              13               15               75.33      0.0250     86.57      82.68      0          0
176              14               16               70.28      0.0250     82.02      77.53      0          0
149              58               56               18.22      0.0250     103.18     103.00     0          0
136              96               94               46.65      0.0250     123.61     122.44     0          0
135              94               92               71.38      0.0250     122.44     120.79     0          0
107              72               74               8.74       0.0250     129.32     128.96     0          0
104              93               95               131.24     0.0250     127.06     123.91     0          0
2003             1073             73               37.78      0.0250     120.95     120.68     0          0
173              14               17               30.19      0.0250     82.02      81.88      0          0
166.1            166.2            34               16.49      0.0250     85.93      83.41      0          0
132              88               85               109.14     0.0250     114.18     112.67     0          0
131              40               54               78.72      0.0250     130.69     125.96     0          0
118              65               68               56.47      0.0250     116.51     112.68     0          0
109              53               67               69.34      0.0250     137.20     132.65     0          0
2001             203              1004             62.23      0.0250     75.09      74.00      0          0
192.1            41               45               100.33     0.0250     79.75      78.34      0          0
175              16               12               13.75      0.0250     77.53      77.07      0          0
119              61               65               48.12      0.0250     119.99     116.51     0          0
116              71               75               16.35      0.0250     112.15     111.53     0          0
101              85               81               35.72      0.0250     112.67     109.96     0          0
154              1                3                56.49      0.0250     107.97     105.77     0          0
139              34               39               82.74      0.0250     83.41      80.39      0          0
129              70               1090             30.00      0.0250     121.90     121.22     0          0
124              20               25               83.85      0.0250     139.16     133.89     0          0
187              79               62               107.22     0.0250     85.55      83.93      0          0
162              21               27               75.68      0.0250     101.22     93.75      0          0
185              60               59               43.65      0.0250     83.60      83.13      0          0
183              48               41               16.24      0.0250     82.02      79.75      0          0
138              4                2                18.82      0.0250     94.31      94.10      0          0
125              77               70               39.24      0.0250     123.12     121.90     0          0
368.1            368.2            368.3            23.26      0.0250     80.39      79.75      0          0
171.1            171.2            30               19.99      0.0250     93.28      92.53      0          0
127              90               88               84.17      0.0250     117.56     114.18     0          0
153              3                5                16.90      0.0250     105.77     105.25     0          0
133              91               88               79.56      0.0250     118.20     114.18     0          0
123              25               50               91.28      0.0250     133.89     127.09     0          0
117              68               71               12.11      0.0250     112.68     112.15     0          0
98               57               71               99.98      0.0250     112.62     112.15     0          0
2000             12               203              231.88     0.0250     77.07      75.09      0          0
182              2                7                79.60      0.0250     94.10      91.00      0          0
168              30               26               129.67     0.0250     92.53      88.36      0          0
152              5                4                162.68     0.0250     105.25     94.31      0          0
113              89               93               202.56     0.0250     134.97     127.06     0          0
167              26               31               126.49     0.0250     88.36      85.93      0          0
144              63               58               27.98      0.0250     104.54     103.18     0          0
130              54               1090             33.66      0.0250     125.96     121.22     0          0
115              75               80               45.66      0.0250     111.53     110.75     0          0
112              19               24               86.47      0.0250     141.26     136.22     0          0
108              67               72               76.64      0.0250     132.65     129.32     0          0
106              74               69               27.20      0.0250     128.96     127.95     0          0
103              24               40               87.54      0.0250     136.22     130.69     0          0
192              51               66               69.02      0.0250     125.76     120.55     0          0
193              66               61               69.02      0.0250     120.55     119.99     0          0
199              55               26               100.00     0.0250     92.47      88.36      0          0

[XSECTIONS]
;;Link           Shape        Geom1      Geom2      Geom3      Geom4      Barrels
;;-------------- ------------ ---------- ---------- ---------- ---------- ----------
151              CIRCULAR     1.05       0          0          0          1
150              CIRCULAR     1.05       0          0          0          1
128              CIRCULAR     0.60       0          0          0          1
148              RECT_CLOSED  0.66       6.00       0          0          1
102              CIRCULAR     0.60       0          0          0          1
181              CIRCULAR     0.30       0          0          0          1
179              CIRCULAR     0.30       0          0          0          1
159              CIRCULAR     1.20       0          0          0          1
111              CIRCULAR     0.45       0          0          0          1
CUL1             CIRCULAR     0.60       0.60       0          0          1
180              CIRCULAR     0.30       0          0          0          1
145              CIRCULAR     1.05       0          0          0          1
174              CIRCULAR     0.30       0          0          0          1
158              CIRCULAR     0.60       0          0          0          1
157              CIRCULAR     0.60       0          0          0          1
141              RECT_CLOSED  0.58       5.00       0          0          1
2002             TRAPEZOIDAL  1.00       5.90       0          0          1
184              CIRCULAR     0.45       0          0          0          1
160              CIRCULAR     1.00       0          0          0          1
105              CIRCULAR     0.45       0          0          0          1
191.1            RECT_CLOSED  1.00       6.00       0          0          1
177              CIRCULAR     0.30       0          0          0          1
172              RECT_CLOSED  0.58       5.00       0          0          1
147              RECT_CLOSED  0.66       5.00       0          0          1
137              CIRCULAR     0.75       0          0          0          1
134              CIRCULAR     0.75       0          0          0          1
126              CIRCULAR     0.60       0          0          0          1
122              CIRCULAR     0.30       0          0          0          1
110              CIRCULAR     0.45       0          0          0          1
100              CIRCULAR     0.60       0          0          0          1
186              CIRCULAR     0.45       0          0          0          1
178              CIRCULAR     0.30       0          0          0          1
176              CIRCULAR     0.45       0          0          0          1
149              TRAPEZOIDAL  0.66       3.45       0          0          1
136              CIRCULAR     0.75       0          0          0          1
135              CIRCULAR     0.75       0          0          0          1
107              CIRCULAR     0.45       0          0          0          1
104              CIRCULAR     0.60       0          0          0          1
2003             CIRCULAR     0.60       0          0          0          1
173              CIRCULAR     0.30       0          0          0          1
166.1            RECT_CLOSED  1.05       6.00       0          0          1
132              CIRCULAR     0.90       0          0          0          1
131              CIRCULAR     0.30       0          0          0          1
118              CIRCULAR     0.45       0          0          0          1
109              CIRCULAR     0.45       0          0          0          1
2001             TRAPEZOIDAL  2.00       4.00       0          0          1
192.1            RECT_CLOSED  1.00       6.00       0          0          1
175              CIRCULAR     0.45       0          0          0          1
119              CIRCULAR     0.30       0          0          0          1
116              CIRCULAR     0.45       0          0          0          1
101              CIRCULAR     0.90       0          0          0          1
154              CIRCULAR     0.30       0          0          0          1
139              RECT_CLOSED  1.00       6.00       0          0          1
129              CIRCULAR     0.60       0          0          0          1
124              CIRCULAR     0.30       0          0          0          1
187              CIRCULAR     0.45       0          0          0          1
162              CIRCULAR     0.45       0          0          0          1
185              CIRCULAR     0.45       0          0          0          1
183              CIRCULAR     0.60       0          0          0          1
138              CIRCULAR     0.30       0          0          0          1
125              CIRCULAR     0.60       0          0          0          1
368.1            RECT_CLOSED  0.90       6.00       0          0          1
171.1            RECT_CLOSED  0.82       5.00       0          0          1
127              CIRCULAR     0.60       0          0          0          1
153              CIRCULAR     0.30       0          0          0          1
133              CIRCULAR     0.75       0          0          0          1
123              CIRCULAR     0.30       0          0          0          1
117              CIRCULAR     0.45       0          0          0          1
98               CIRCULAR     0.30       0          0          0          1
2000             TRAPEZOIDAL  2.00       4.00       0          0          1
182              CIRCULAR     0.30       0          0          0          1
168              RECT_CLOSED  0.58       6.00       0          0          1
152              CIRCULAR     0.30       0          0          0          1
113              CIRCULAR     0.60       0          0          0          1
167              TRAPEZOIDAL  1.00       6.00       0          0          1
144              CIRCULAR     1.05       0          0          0          1
130              CIRCULAR     0.30       0          0          0          1
115              CIRCULAR     0.60       0          0          0          1
112              CIRCULAR     0.30       0          0          0          1
108              CIRCULAR     0.45       0          0          0          1
106              CIRCULAR     0.45       0          0          0          1
103              CIRCULAR     0.30       0          0          0          1
192              CIRCULAR     0.30       0          0          0          1
193              CIRCULAR     0.30       0          0          0          1
199              CIRCULAR     0.60       0          0          0          1

[LOSSES]
;;Link           Inlet      Outlet     Average    Flap Gate
;;-------------- ---------- ---------- ---------- ----------
151              0          0          0          NO
150              0          0          0          NO
128              0          0          0          NO
148              0          0          0          NO
102              0          0          0          NO
181              0          0          0          NO
179              0          0          0          NO
159              0          0          0          NO
111              0          0          0          NO
CUL1             0          0          0          NO
180              0          0          0          NO
145              0          0          0          NO
174              0          0          0          NO
158              0          0          0          NO
157              0          0          0          NO
141              0          0          0          NO
2002             0          0          0          NO
184              0          0          0          NO
160              0          0          0          NO
105              0          0          0          NO
191.1            0          0          0          NO
177              0          0          0          NO
172              0          0          0          NO
147              0          0          0          NO
137              0          0          0          NO
134              0          0          0          NO
126              0          0          0          NO
122              0          0          0          NO
110              0          0          0          NO
100              0          0          0          NO
186              0          0          0          NO
178              0          0          0          NO
176              0          0          0          NO
149              0          0          0          NO
136              0          0          0          NO
135              0          0          0          NO
107              0          0          0          NO
104              0          0          0          NO
2003             0          0          0          NO
173              0          0          0          NO
166.1            0          0          0          NO
132              0          0          0          NO
131              0          0          0          NO
118              0          0          0          NO
109              0          0          0          NO
2001             0          0          0          NO
192.1            0          0          0          NO
175              0          0          0          NO
119              0          0          0          NO
116              0          0          0          NO
101              0          0          0          NO
154              0          0          0          NO
139              0          0          0          NO
129              0          0          0          NO
124              0          0          0          NO
187              0          0          0          NO
162              0          0          0          NO
185              0          0          0          NO
183              0          0          0          NO
138              0          0          0          NO
125              0          0          0          NO
368.1            0          0          0          NO
171.1            0          0          0          NO
127              0          0          0          NO
153              0          0          0          NO
133              0          0          0          NO
123              0          0          0          NO
117              0          0          0          NO
98               0          0          0          NO
2000             0          0          0          NO
182              0          0          0          NO
168              0          0          0          NO
152              0          0          0          NO
113              0          0          0          NO
167              0          0          0          NO
144              0          0          0          NO
130              0          0          0          NO
115              0          0          0          NO
112              0          0          0          NO
108              0          0          0          NO
106              0          0          0          NO
103              0          0          0          NO
192              0          0          0          NO
193              0          0          0          NO
199              0          0          0          NO

[COORDINATES]
;;Node           X-Coord            Y-Coord
;;-------------- ------------------ ------------------
57               3749491.95         -31677.66         
71               3749566.11         -31749.87         
80               3749628.02         -31746.96         
81               3749651.13         -31720.04         
85               3749674.12         -31747.97         
69               3749556.65         -32132.29         
76               3749588.68         -32063.33         
24               3749357.83         -32111.70         
40               3749427.13         -32058.50         
93               3749820.76         -32129.99         
95               3749864.71         -32006.37         
78               3749618.97         -32255.27         
67               3749545.79         -32222.45         
74               3749580.85         -32144.68         
72               3749574.10         -32153.14         
53               3749480.76         -32198.53         
52               3749473.64         -32214.52         
44               3749436.45         -32297.72         
19               3749288.63         -32163.30         
89               3749726.70         -32309.21         
75               3749582.40         -31748.61         
68               3749554.08         -31751.15         
65               3749534.01         -31803.79         
61               3749515.34         -31848.17         
66               3749532.62         -31908.21         
51               3749462.90         -31936.78         
1090             3749528.27         -32021.98         
50               3749447.80         -31942.99         
25               3749369.23         -31988.27         
20               3749303.81         -32040.45         
77               3749592.77         -32054.05         
70               3749556.46         -32038.21         
90               3749736.12         -31930.95         
88               3749710.63         -31850.81         
73               3749577.44         -31993.08         
54               3749484.09         -32002.80         
91               3749784.77         -31822.25         
92               3749801.78         -31860.37         
94               3749848.36         -31914.43         
96               3749887.00         -31940.54         
4                3749083.94         -31023.73         
2                3749083.49         -31004.92         
34               3749408.56         -31005.53         
39               3749421.01         -30924.35         
37               3749418.14         -31380.63         
27               3749380.74         -31297.91         
49               3749446.02         -31440.89         
56               3749491.78         -31553.44         
63               3749516.83         -31593.53         
58               3749500.90         -31570.40         
83               3749653.59         -31715.30         
64               3749517.40         -31598.90         
5                3749086.12         -31186.03         
3                3749083.89         -31202.77         
1                3749027.46         -31201.26         
26               3749371.57         -31138.89         