;; SWMM5 .inp converted from XPSWMM .xp file
;; Generated by XPSWMM Card Reader
;; Source format: XP_CARD | Original title: (none)

[TITLE]
;;Project Title/Notes
Converted from XPSWMM .xp file

[OPTIONS]
FLOW_UNITS           CFS
INFILTRATION         HORTON
FLOW_ROUTING         DYNWAVE
LINK_OFFSETS         DEPTH
MIN_SLOPE            0.0
ALLOW_PONDING        NO
SKIP_STEADY_STATE    NO
ROUTING_STEP         00:00:60
VARIABLE_STEP        0.75
INERTIAL_DAMPING     PARTIAL
NORMAL_FLOW_LIMITED  BOTH
MAX_TRIALS           500
HEAD_TOLERANCE       0.0033

[JUNCTIONS]
;;Name           Elev       MaxDepth   InitDepth  SurDepth   Aponded
;;-------------- ---------- ---------- ---------- ---------- ----------
0                999.00     0          3.05       0          0
0                999.00     0          2.82       0          0
0                999.00     0          0          0          0
0                999.00     0          0.05       0          0
0                999.00     0          0          0          0
0                999.00     0          0.29       0          0
0                999.00     0          0.43       0          0
0                999.00     0          0.75       0          0
0                999.00     0          1.11       0          0
0                999.00     0          1.51       0          0
0                999.00     0          1.61       0          0
0                999.00     0          2.23       0          0
0                999.00     0          0          0          0
0                999.00     0          5.62       0          0
0                999.00     0          0          0          0
0                999.00     0          0          0          0
0                999.00     0          0          0          0
0                999.00     0          1.30       0          0
0                999.00     0          3.00       0          0
0                999.00     0          0          0          0
0                999.00     0          0.80       0          0
0                999.00     0          0          0          0
0                999.00     0          0.02       0          0
0                999.00     0          0          0          0
0                999.00     0          0          0          0
0                999.00     0          0          0          0
0                999.00     0          0          0          0
0                999.00     0          1.68       0          0
0                999.00     0          0.01       0          0
0                999.00     0          0.23       0          0
0                999.00     0          0          0          0
0                999.00     0          0.60       0          0
0                999.00     0          1.25       0          0
0                999.00     0          0          0          0
0                999.00     0          2.06       0          0
0                999.00     0          1.96       0          0
0                999.00     0          0.36       0          0
0                999.00     0          0.13       0          0
0                999.00     0          0          0          0
0                999.00     0          1.22       0          0
0                999.00     0          0          0          0
0                999.00     0          0          0          0
0                999.00     0          0          0          0
0                999.00     0          0          0          0
0                999.00     0          0          0          0
0                999.00     0          0.90       0          0
0                999.00     0          0          0          0
0                999.00     0          0          0          0
0                999.00     0          0.81       0          0
0                999.00     0          1.22       0          0
0                999.00     0          1.75       0          0
0                999.00     0          0.88       0          0
0                999.00     0          0          0          0
0                999.00     0          0          0          0
0                999.00     0          0          0          0
0                999.00     0          1.11       0          0
0                999.00     0          0          0          0
0                999.00     0          2.15       0          0
0                999.00     0          2.36       0          0
0                999.00     0          2.42       0          0
0                999.00     0          2.42       0          0
0                999.00     0          2.72       0          0
0                999.00     0          2.72       0          0
0                999.00     0          3.06       0          0
0                999.00     0          3.06       0          0
0                999.00     0          3.39       0          0
0                999.00     0          0          0          0
0                999.00     0          0.66       0          0
0                999.00     0          0          0          0
0                999.00     0          0.18       0          0
0                999.00     0          0          0          0
0                999.00     0          0          0          0
0                999.00     0          1.00       0          0
0                999.00     0          0.82       0          0
0                999.00     0          0          0          0
0                999.00     0          0          0          0
0                999.00     0          0          0          0
0                999.00     0          0.70       0          0
0                999.00     0          0          0          0
0                999.00     0          0          0          0
0                999.00     0          0          0          0
0                999.00     0          0          0          0
0                999.00     0          0          0          0
0                999.00     0          0          0          0
0                999.00     0          0          0          0
0                999.00     0          0          0          0
0                999.00     0          0          0          0
0                999.00     0          0          0          0
0                999.00     0          0          0          0
0                999.00     0          0          0          0
0                999.00     0          0          0          0
0                999.00     0          0          0          0
0                999.00     0          0          0          0
0                999.00     0          1.10       0          0
0                999.00     0          0          0          0
0                999.00     0          0          0          0
0                999.00     0          0          0          0
0                999.00     0          0          0          0
0                999.00     0          0          0          0
0                999.00     0          0          0          0
0                999.00     0          0          0          0
0                999.00     0          0.43       0          0
0                999.00     0          0          0          0
0                999.00     0          1.33       0          0
0                999.00     0          0          0          0
0                999.00     0          0          0          0
0                999.00     0          0.55       0          0
0                999.00     0          0          0          0
0                999.00     0          0.20       0          0
0                999.00     0          0.30       0          0
0                999.00     0          0.70       0          0
0                999.00     0          0          0          0
0                999.00     0          0          0          0
0                999.00     0          0          0          0
0                999.00     0          0          0          0
0                999.00     0          0          0          0
0                999.00     0          0          0          0
0                999.00     0          0.35       0          0
0                999.00     0          0          0          0
0                999.00     0          1.70       0          0
0                999.00     0          0          0          0
0                999.00     0          0.80       0          0
0                999.00     0          1.00       0          0
0                999.00     0          1.41       0          0
0                999.00     0          0          0          0
0                999.00     0          1.80       0          0
0                999.00     0          2.39       0          0
0                999.00     0          5.66       0          0
0                999.00     0          6.63       0          0
0                999.00     0          0.86       0          0
0                999.00     0          1.34       0          0
0                999.00     0          1.37       0          0
0                999.00     0          1.42       0          0
0                999.00     0          0.82       0          0
0                999.00     0          0          0          0
0                999.00     0          0          0          0
0                999.00     0          3.70       0          0
0                999.00     0          0          0          0
0                999.00     0          0          0          0
0                999.00     0          0.35       0          0
0                999.00     0          2.36       0          0
0                999.00     0          0          0          0
0                999.00     0          0          0          0
0                999.00     0          0          0          0
0                999.00     0          2.26       0          0
0                999.00     0          3.09       0          0
0                999.00     0          0          0          0
0                999.00     0          0          0          0
0                999.00     0          2.75       0          0
0                999.00     0          3.02       0          0
0                999.00     0          6.07       0          0
0                999.00     0          5.82       0          0
0                999.00     0          0.92       0          0
0                999.00     0          0.60       0          0
0                999.00     0          0.29       0          0
0                999.00     0          0.75       0          0
0                999.00     0          0          0          0
0                999.00     0          0          0          0
0                999.00     0          0          0          0
0                999.00     0          0          0          0
0                999.00     0          1.15       0          0
0                999.00     0          0          0          0
0                999.00     0          0          0          0
0                999.00     0          0          0          0
0                999.00     0          0          0          0
0                999.00     0          0          0          0
0                999.00     0          0          0          0
0                999.00     0          0          0          0
0                999.00     0          0          0          0
0                999.00     0          4.40       0          0
0                999.00     0          0          0          0
0                999.00     0          0          0          0
0                999.00     0          0          0          0
0                999.00     0          0          0          0
0                999.00     0          0          0          0
0                999.00     0          -0.02      0          0
0                999.00     0          0          0          0
0                999.00     0          0.06       0          0
0                999.00     0          0          0          0
0                999.00     0          2.90       0          0
0                999.00     0          0.56       0          0
0                999.00     0          1.58       0          0
0                999.00     0          0          0          0
0                999.00     0          0          0          0
0                999.00     0          0          0          0
0                999.00     0          0.66       0          0
0                999.00     0          0          0          0
0                999.00     0          0          0          0
0                999.00     0          0.32       0          0
0                999.00     0          0          0          0
0                999.00     0          0          0          0
0                999.00     0          0          0          0
0                999.00     0          0          0          0
0                999.00     0          2.86       0          0
0                999.00     0          0          0          0
0                999.00     0          0          0          0
0                999.00     0          0          0          0
0                999.00     0          0          0          0
0                999.00     0          0          0          0
0                999.00     0          0          0          0
0                999.00     0          0          0          0
0                999.00     0          0          0          0
0                999.00     0          0          0          0
0                999.00     0          0          0          0
0                999.00     0          0          0          0
0                999.00     0          0          0          0
0                999.00     0          0          0          0
0                999.00     0          0          0          0
0                999.00     0          0.16       0          0
0                999.00     0          1.12       0          0
0                999.00     0          1.12       0          0
0                999.00     0          0.12       0          0
0                999.00     0          1.45       0          0
0                999.00     0          0.30       0          0
0                999.00     0          0          0          0
0                999.00     0          0          0          0
0                999.00     0          0          0          0
0                999.00     0          0          0          0
0                999.00     0          0          0          0
0                999.00     0          0          0          0
0                999.00     0          0          0          0
0                999.00     0          0          0          0
0                999.00     0          0          0          0
0                999.00     0          0          0          0
0                999.00     0          0          0          0
0                999.00     0          0          0          0
0                999.00     0          0          0          0
0                999.00     0          0          0          0
0                999.00     0          1.80       0          0
0                999.00     0          0          0          0
0                999.00     0          0          0          0
0                999.00     0          0          0          0
0                999.00     0          0          0          0
0                999.00     0          0          0          0
0                999.00     0          0.10       0          0
0                999.00     0          0          0          0
0                999.00     0          0          0          0
0                999.00     0          2.70       0          0
0                999.00     0          1.43       0          0
0                999.00     0          4.36       0          0
0                999.00     0          0.78       0          0
0                999.00     0          0.57       0          0
0                999.00     0          4.46       0          0
0                999.00     0          0          0          0
0                999.00     0          0          0          0
0                999.00     0          0          0          0
0                999.00     0          0.30       0          0
0                999.00     0          0          0          0
0                999.00     0          0          0          0
0                999.00     0          0          0          0
0                999.00     0          0          0          0
0                999.00     0          0          0          0
0                999.00     0          0.24       0          0
0                999.00     0          0.34       0          0
0                999.00     0          0.80       0          0
0                999.00     0          0          0          0
0                999.00     0          0          0          0
0                999.00     0          0          0          0
0                999.00     0          1.02       0          0
0                999.00     0          3.14       0          0
0                999.00     0          0          0          0
0                999.00     0          0          0          0
0                999.00     0          0.08       0          0
0                999.00     0          0          0          0
0                999.00     0          0          0          0
0                999.00     0          0.04       0          0
0                999.00     0          0.30       0          0
0                999.00     0          0.16       0          0
0                999.00     0          0.11       0          0
0                999.00     0          0.46       0          0
0                999.00     0          0          0          0
0                999.00     0          0.36       0          0
0                999.00     0          0          0          0
0                999.00     0          0          0          0
0                999.00     0          0          0          0
0                999.00     0          0          0          0
0                999.00     0          0          0          0
0                999.00     0          0          0          0
0                999.00     0          0.99       0          0
0                999.00     0          1.72       0          0
0                999.00     0          1.92       0          0
0                999.00     0          4.72       0          0
0                999.00     0          0          0          0
0                999.00     0          0.07       0          0
0                999.00     0          0.40       0          0
0                999.00     0          0          0          0
0                999.00     0          1.00       0          0
0                999.00     0          0          0          0
0                999.00     0          0          0          0
0                999.00     0          1.00       0          0
0                999.00     0          2.90       0          0
0                999.00     0          0.30       0          0
0                999.00     0          0          0          0
0                999.00     0          0          0          0
0                999.00     0          0          0          0
0                999.00     0          0          0          0
0                999.00     0          1.00       0          0
0                999.00     0          0          0          0
0                999.00     0          0          0          0
0                999.00     0          0          0          0
0                999.00     0          1.00       0          0
0                999.00     0          2.30       0          0
0                999.00     0          0.89       0          0
0                999.00     0          0          0          0
0                999.00     0          1.20       0          0
0                999.00     0          1.70       0          0
0                999.00     0          0.14       0          0
0                999.00     0          0          0          0
0                999.00     0          0.08       0          0
0                999.00     0          0.66       0          0
0                999.00     0          0          0          0
0                999.00     0          3.20       0          0
0                999.00     0          1.94       0          0
0                999.00     0          1.70       0          0
0                999.00     0          1.38       0          0
0                999.00     0          1.49       0          0
0                999.00     0          0.60       0          0
0                999.00     0          1.35       0          0
0                999.00     0          0.22       0          0
0                999.00     0          1.50       0          0
0                999.00     0          0          0          0
0                999.00     0          0.06       0          0
0                999.00     0          0.49       0          0
0                999.00     0          0.51       0          0
0                999.00     0          4.00       0          0
0                999.00     0          4.01       0          0
0                999.00     0          3.80       0          0
0                999.00     0          3.81       0          0
0                999.00     0          3.71       0          0
0                999.00     0          3.70       0          0
0                999.00     0          3.62       0          0
0                999.00     0          3.64       0          0
0                999.00     0          0          0          0
0                999.00     0          0          0          0
0                999.00     0          0          0          0
0                999.00     0          0.12       0          0
0                999.00     0          0.14       0          0
0                999.00     0          0          0          0
0                999.00     0          1.02       0          0
0                999.00     0          0          0          0
0                999.00     0          0.22       0          0
0                999.00     0          0          0          0
0                999.00     0          0.69       0          0
0                999.00     0          0.88       0          0
0                999.00     0          3.11       0          0
0                999.00     0          3.29       0          0
0                999.00     0          2.47       0          0
0                999.00     0          2.04       0          0
0                999.00     0          2.52       0          0
0                999.00     0          3.02       0          0
0                999.00     0          0          0          0
0                999.00     0          0          0          0
0                999.00     0          0          0          0
0                999.00     0          2.56       0          0
0                999.00     0          0          0          0
0                999.00     0          1.95       0          0
0                999.00     0          1.63       0          0
0                999.00     0          1.73       0          0
0                999.00     0          2.49       0          0
0                999.00     0          0.41       0          0
0                999.00     0          0          0          0
0                999.00     0          0          0          0
0                999.00     0          0          0          0
0                999.00     0          0          0          0
0                999.00     0          0          0          0
0                999.00     0          0          0          0
0                999.00     0          0          0          0
0                999.00     0          0          0          0
0                999.00     0          0          0          0
0                999.00     0          0.67       0          0
0                999.00     0          0.48       0          0
0                999.00     0          0          0          0
0                999.00     0          0          0          0
0                999.00     0          0          0          0
0                999.00     0          0          0          0
0                999.00     0          0          0          0
0                999.00     0          0          0          0
0                999.00     0          0          0          0
0                999.00     0          0          0          0
0                999.00     0          0          0          0
0                999.00     0          0          0          0
0                999.00     0          0          0          0
0                999.00     0          0          0          0
0                999.00     0          0          0          0
0                999.00     0          0          0          0
0                999.00     0          0.69       0          0
0                999.00     0          0.99       0          0
0                999.00     0          0          0          0
0                999.00     0          0          0          0
0                999.00     0          0          0          0
0                999.00     0          1.39       0          0
0                999.00     0          0          0          0
0                999.00     0          0          0          0
0                999.00     0          0          0          0
0                999.00     0          0          0          0
0                999.00     0          0          0          0
0                999.00     0          0          0          0
0                999.00     0          0          0          0
0                999.00     0          0.37       0          0
0                999.00     0          0          0          0
0                999.00     0          0          0          0
0                999.00     0          0          0          0
0                999.00     0          0          0          0
0                999.00     0          0.52       0          0
0                999.00     0          0          0          0
0                999.00     0          0          0          0
0                999.00     0          0          0          0
0                999.00     0          0.70       0          0
0                999.00     0          1.54       0          0
0                999.00     0          1.60       0          0
0                999.00     0          1.62       0          0
0                999.00     0          0          0          0
0                999.00     0          0          0          0
0                999.00     0          0          0          0
0                999.00     0          0.14       0          0
0                999.00     0          0.10       0          0
0                999.00     0          0          0          0
0                999.00     0          0          0          0
0                999.00     0          0          0          0
0                999.00     0          0          0          0
0                999.00     0          0          0          0
0                999.00     0          0          0          0
0                999.00     0          0.29       0          0
0                999.00     0          0.85       0          0
0                999.00     0          0.17       0          0
0                999.00     0          0          0          0
0                999.00     0          0          0          0
0                999.00     0          0          0          0
0                999.00     0          5.81       0          0
0                999.00     0          0          0          0
0                999.00     0          0          0          0
0                999.00     0          0          0          0
0                999.00     0          0          0          0
0                999.00     0          2.50       0          0
0                999.00     0          0.70       0          0
0                999.00     0          0.16       0          0
0                999.00     0          4.50       0          0
0                999.00     0          4.89       0          0
0                999.00     0          6.37       0          0
0                999.00     0          5.14       0          0
0                999.00     0          5.23       0          0
0                999.00     0          1.20       0          0
0                999.00     0          0          0          0
0                999.00     0          0          0          0
0                999.00     0          2.20       0          0
0                999.00     0          0          0          0
0                999.00     0          0          0          0
0                999.00     0          0          0          0
0                999.00     0          0          0          0
0                999.00     0          0          0          0
0                999.00     0          0          0          0
0                999.00     0          1.54       0          0
0                999.00     0          0.10       0          0
0                999.00     0          0          0          0
0                999.00     0          0          0          0
0                999.00     0          0.16       0          0
0                999.00     0          0          0          0
0                999.00     0          0.58       0          0
0                999.00     0          1.99       0          0
0                999.00     0          0          0          0
0                999.00     0          0          0          0
0                999.00     0          0          0          0
0                999.00     0          0          0          0
0                999.00     0          0          0          0
0                999.00     0          0          0          0