;; SWMM5 .inp converted from XPSWMM .xp file
;; Generated by XPSWMM Card Reader
;; Source format: XP_CARD | Original title: Owl Head WPCP, Brooklyn Highway Datum

[TITLE]
;;Project Title/Notes
Owl Head WPCP, Brooklyn Highway Datum

[OPTIONS]
FLOW_UNITS           CFS
INFILTRATION         HORTON
FLOW_ROUTING         DYNWAVE
LINK_OFFSETS         DEPTH
MIN_SLOPE            0.0
ALLOW_PONDING        NO
SKIP_STEADY_STATE    NO
ROUTING_STEP         00:00:30
VARIABLE_STEP        0.75
INERTIAL_DAMPING     PARTIAL
NORMAL_FLOW_LIMITED  BOTH
MAX_TRIALS           30
HEAD_TOLERANCE       0.0033

[JUNCTIONS]
;;Name           Elev       MaxDepth   InitDepth  SurDepth   Aponded
;;-------------- ---------- ---------- ---------- ---------- ----------
S-04             13.00      0          0          0          0
S-05             10.05      0          0          0          0
S-06             7.50       0          0          0          0
S-07             10.05      0          0          0          0
S-09             11.00      0          0          0          0
S-R3             12.50      0          0          0          0
S-12             10.00      0          0          0          0
S-R4             11.00      0          0          0          0
S-R5             10.00      0          0          0          0
JC               10.00      0          0          0          0
R-6D             10.00      0          0          0          0
N-05             17.50      0          0          0          0
N-04             18.00      0          0          0          0
R7Z              13.00      0          0          0          0
WW-OH            10.00      0          0          0          0
DISCH            10.00      0          0          0          0
S-R1             17.00      0          0          0          0
TG-1             17.00      0          0          0          0
R-2              11.00      0          0          0          0
TG-2             11.00      0          0          0          0
CS-2             11.00      0          0          0          0
R-3              12.50      0          0          0          0
TG-3             12.50      0          0          0          0
CS-3             12.50      0          0          0          0
R-4              11.00      0          0          0          0
TG-4             11.00      0          0          0          0
CS-4             11.00      0          0          0          0
R-5              8.70       0          0          0          0
TG-5             8.70       0          0          0          0
CS-5             8.70       0          0          0          0
R-6C             14.00      0          0          0          0
R-6              10.00      0          0          0          0
TG-6C            14.00      0          0          0          0
R-9C-Ta          45.00      0          0          0          0
9C-04            41.00      0          0          0          0
9C-05            40.00      0          0          0          0
9C-06            38.00      0          0          0          0
9C-07            36.00      0          0          0          0
9C-08            34.00      0          0          0          0
9C-09            32.00      0          0          0          0
9C-10            30.00      0          0          0          0
9C-11            28.00      0          0          0          0
9C-12            26.00      0          0          0          0
9C-13            24.00      0          0          0          0
9C-14            22.00      0          0          0          0
9C-15            20.00      0          0          0          0
9C-16            18.00      0          0          0          0
CS-7A            13.20      0          0          0          0
R-7A             13.20      0          0          0          0
R-7              13.30      0          0          0          0
TG-7             13.30      0          0          0          0
CS-7C            13.40      0          0          0          0
R-7C             13.40      0          0          0          0
CS-7B            13.00      0          0          0          0
R-7B             13.40      0          0          0          0
R-9a             25.00      0          0          0          0
CS-01E           20.50      0          0          0          0
CS-01F           20.00      0          0          0          0
CS-01G           19.50      0          0          0          0
CS-01H           19.00      0          0          0          0
CS-01I           18.50      0          0          0          0
CS-01J           18.00      0          0          0          0
CS-01K           17.50      0          0          0          0
VFM              25.00      0          0          0          0
TG-9AT           20.00      0          0          0          0
TG-9ATa          20.00      0          0          0          0
R-9AB            20.00      0          0          0          0
TG-9AB           20.00      0          0          0          0
TG-9A            20.00      0          0          0          0
VDS              35.00      0          0          0          0
CS-9B            30.00      0          0          0          0
R-9B             30.00      0          0          0          0
R-9Ba            25.00      0          0          0          0
9B-02            25.00      0          0          0          0
9B-04            25.00      0          0          0          0
CS-09A-T         25.00      0          0          0          0
9CB-05           29.00      0          0          0          0
9CB-07           25.00      0          0          0          0
9CB-09           25.00      0          0          0          0
CS-09A-B         25.00      0          0          0          0
CS-09C-T         50.00      0          0          0          0
R-9C-T           50.00      0          0          0          0
CS-09C-B         50.00      0          0          0          0
R-9C-B           45.00      0          0          0          0
CS-8B            45.00      0          0          0          0
9CB-01           45.00      0          0          0          0
9CB-03           35.00      0          0          0          0
9CT-01           45.00      0          0          0          0
9CT-03           35.00      0          0          0          0
N-01             19.00      0          0          0          0
N-02             21.80      0          0          0          0
N-03             18.00      0          0          0          0
R6CZ             14.00      0          0          0          0
CS-6A            14.00      0          0          0          0
R-6A             14.00      0          0          0          0
CS-6B            14.00      0          0          0          0
R-6B             14.00      0          0          0          0
N-05Z            12.00      0          0          0          0
N-06             13.50      0          0          0          0
S-17             8.70       0          0          0          0
S-19             15.00      0          0          0          0
R5Z              10.00      0          0          0          0
R4Z              11.00      0          0          0          0
S-11             9.00       0          0          0          0
R3Z              12.50      0          0          0          0
R2Z              11.00      0          0          0          0
S-03             9.00       0          0          0          0
R-1              17.00      0          0          0          0
9A-01            24.50      0          0          0          0
9A-02            24.00      0          0          0          0
9A-03            23.50      0          0          0          0
CS-01A           22.50      0          0          0          0
CS-01B           22.00      0          0          0          0
CS-01C           21.50      0          0          0          0
CS-01D           21.00      0          0          0          0
9C-01            44.00      0          0          0          0
9C-02            43.00      0          0          0          0
9C-03            42.00      0          0          0          0
CS-6C            16.00      0          0          0          0
CS-V             9.00       0          0          0          0
R-V              22.00      0          0          0          0
TG-V             22.00      0          0          0          0
R-9C-Ba          45.00      0          0          0          0
9CB-02           40.00      0          0          0          0
9CT-02           40.00      0          0          0          0
9CT-04           30.00      0          0          0          0
9CB-04           30.00      0          0          0          0
9B-01            25.00      0          0          0          0
9CB-06           27.00      0          0          0          0
9B-03            25.00      0          0          0          0
9CB-08           25.00      0          0          0          0
9CB-10           25.00      0          0          0          0
9B-05            25.00      0          0          0          0
R-9D-T           50.00      0          0          0          0
R-9C-D           50.00      0          0          0          0
CS-01            23.00      0          0          0          0

[OUTFALLS]
;;Name           Elev       Type       Stage      Gated
;;-------------- ---------- ---------- ---------- -----
RW-OH            10.00      FREE                  NO
RW-1             7.00       FREE                  NO
RW-2             11.00      FREE                  NO
RW-3             12.50      FREE                  NO
RW-4             11.00      FREE                  NO
RW-5             8.70       FREE                  NO
RW-6C            14.00      FREE                  NO
RW-7             13.30      FREE                  NO
RW-9A            20.00      FREE                  NO
RW-V             22.00      FREE                  NO

[STORAGE]
;;Name           Elev       MaxDepth   InitDepth  Shape      Curve/Params
;;-------------- ---------- ---------- ---------- ---------- ----------
RVZ              22.00      0          0          FUNCTIONAL 1000.00 0          0
WW-V             9.00       0          0          FUNCTIONAL 1000.00 0          0

[CONDUITS]
;;Name           From             To               Length     Roughness  InOffset   OutOffset  InitFlow   MaxFlow
;;-------------- ---------------- ---------------- ---------- ---------- ---------- ---------- ---------- ----------
102              S-04             S-05             600.00     0.0140     -7.87      -8.28      0          0
103              S-05             S-06             583.51     0.0140     -8.28      -8.68      0          0
104              S-06             S-07             591.40     0.0140     -8.68      -9.08      0          0
200              S-07             S-09             646.46     0.0140     -9.08      -9.52      0          0
201              S-09             S-R3             421.99     0.0231     -9.52      -10.31     0          0
300              S-R3             S-11             430.01     0.0140     -10.31     -10.60     0          0
302              S-12             S-R4             639.44     0.0140     -11.25     -11.69     0          0
400              S-R4             S-R5             846.75     0.0140     -11.69     -12.23     0          0
502              S-19             JC               354.98     0.0140     -13.20     -13.44     0          0
600              R-6D             N-05Z            419.37     0.0140     -12.70     -12.91     0          0
705              N-05             R-6D             653.08     0.0379     -10.27     -12.70     0          0
704              N-04             N-05             876.33     0.0140     -9.82      -10.27     0          0
700              R7Z              N-01             754.38     0.0140     -8.50      -8.89      0          0
INLET            JC               WW-OH            300.00     0.0235     -13.44     -15.25     0          0
OUTFALL          DISCH            RW-OH            300.00     0.0140     0          -0.30      0          0
100              S-R1             S-03             643.78     0.0140     -7.09      -7.53      0          0
190              TG-1             RW-1             300.00     0.0140     -4.96      -5.26      0          0
250              R2Z              S-07             300.00     0.0127     -1.32      -9.08      0          0
290              TG-2             RW-2             300.00     0.0140     0.21       -2.79      0          0
280              CS-2             R-2              300.00     0.0140     2.80       -0.20      0          0
351              R3Z              S-R3             300.00     0.0148     -4.75      -10.31     0          0
390              TG-3             RW-3             300.00     0.0140     -4.18      -4.48      0          0
380              CS-3             R-3              300.00     0.0140     -3.78      -4.08      0          0
451              R4Z              S-R4             300.00     0.0184     -5.20      -11.69     0          0
490              TG-4             RW-4             300.00     0.0140     -4.50      -4.80      0          0
480              CS-4             R-4              300.00     0.0140     -4.20      -4.50      0          0
551              R5Z              S-R5             300.00     0.0075     -4.50      -12.23     0          0
590              TG-5             RW-5             300.00     0.0140     -2.40      -2.70      0          0
580              CS-5             R-5              300.00     0.0140     0.70       -2.30      0          0
650C             R6CZ             R-6              300.00     0.0088     -5.70      -8.90      0          0
690C             TG-6C            RW-6C            300.00     0.0140     -3.05      -3.35      0          0
900C             R-9C-Ta          9C-01            880.00     0.0140     5.16       4.59       0          0
904C             9C-04            9C-05            790.00     0.0140     3.19       2.71       0          0
905C             9C-05            9C-06            790.00     0.0140     2.71       2.22       0          0
906C             9C-06            9C-07            530.00     0.0140     2.22       1.90       0          0
907C             9C-07            9C-08            920.00     0.0140     1.90       1.34       0          0
908C             9C-08            9C-09            440.00     0.0140     1.34       1.07       0          0
909C             9C-09            9C-10            790.00     0.0140     1.07       0.58       0          0
910C             9C-10            9C-11            790.00     0.0140     0.58       0.10       0          0
911C             9C-11            9C-12            645.00     0.0140     0.10       -0.28      0          0
912C             9C-12            9C-13            645.00     0.0140     -0.28      -0.67      0          0
913C             9C-13            9C-14            785.00     0.0140     -0.67      -1.14      0          0
914C             9C-14            9C-15            800.00     0.0140     -1.14      -1.62      0          0
915C             9C-15            9C-16            790.00     0.0140     -1.62      -2.09      0          0
916C             9C-16            CS-6C            750.00     0.0140     -2.09      -2.57      0          0
780A             CS-7A            R-7A             300.00     0.0150     -6.30      -6.60      0          0
750A             R-7A             R-7              300.00     0.0091     -6.60      -6.75      0          0
780C             CS-7C            R-7C             300.00     0.0150     3.75       0.75       0          0
750C             R-7C             R-7B             300.00     0.0055     0.75       -3.00      0          0
780B             CS-7B            R-7B             300.00     0.0150     -2.70      -3.00      0          0
790A             TG-7             RW-7             300.00     0.0150     -5.01      -5.31      0          0
900A             R-9a             9A-01            880.00     0.0140     3.16       1.78       0          0
180F             CS-01E           CS-01F           770.00     0.0140     -1.69      -2.19      0          0
180G             CS-01F           CS-01G           920.00     0.0140     -2.19      -2.79      0          0
180H             CS-01G           CS-01H           620.00     0.0140     -2.79      -3.20      0          0
180I             CS-01H           CS-01I           390.00     0.0140     -3.20      -3.40      0          0
180J             CS-01I           CS-01J           690.00     0.0140     -3.40      -3.85      0          0
180K             CS-01J           CS-01K           660.00     0.0140     -3.85      -4.38      0          0
180L             CS-01K           R-1              830.00     0.0140     -4.38      -4.80      0          0
V01              VFM              R-9a             500.00     0.0045     3.22       3.16       0          0
991AT            TG-9AT           TG-9ATa          995.00     0.0140     5.39       3.97       0          0
991AB            R-9AB            TG-9AB           995.00     0.0150     -6.11      -7.61      0          0
992AT            TG-9ATa          TG-9A            350.00     0.0140     3.97       -8.03      0          0
992AB            TG-9AB           TG-9A            1000.00    0.0088     -7.61      -8.03      0          0
990A             TG-9A            RW-9A            1000.00    0.0091     -8.03      -8.48      0          0
V00              VDS              VFM              500.00     0.0140     8.22       3.22       0          0
980B             CS-9B            R-9B             500.00     0.0140     16.05      13.55      0          0
950B             R-9B             R-9Ba            500.00     0.0028     13.55      13.42      0          0
900B             R-9Ba            9B-01            784.00     0.0140     13.42      12.28      0          0
902B             9B-02            9B-03            816.00     0.0150     11.14      9.46       0          0
904B             9B-04            9B-05            645.00     0.0150     7.78       7.06       0          0
980A-T           CS-09A-T         R-9a             810.00     0.0150     6.33       3.20       0          0
904CB            9CB-05           9CB-06           674.00     0.0150     1.92       0.56       0          0
906CB            9CB-07           9CB-08           757.50     0.0140     -0.81      -2.02      0          0
19209            9CB-09           9CB-10           820.00     0.0140     -3.23      -4.20      0          0
980A-B           CS-09A-B         R-9AB            810.00     0.0150     -5.17      -6.11      0          0
980CT            R-9D-T           R-9C-T           500.00     0.0140     27.10      20.00      0          0
950CT            R-9C-T           R-9C-Ta          500.00     0.0028     20.00      5.16       0          0
980CB            R-9C-D           R-9C-B           500.00     0.0140     10.27      5.88       0          0
950CB            R-9C-B           R-9C-Ba          640.00     0.0150     5.88       5.52       0          0
800B             CS-8B            R-9C-B           1000.00    0.0140     10.88      5.88       0          0
900CB            9CB-01           9CB-02           810.00     0.0140     8.25       6.67       0          0
902-CB           9CB-03           9CB-04           810.00     0.0140     5.08       3.50       0          0
900CT            9CT-01           9CT-02           810.00     0.0140     19.77      18.18      0          0
902CT            9CT-03           9CT-04           810.00     0.0150     16.60      15.01      0          0
701              N-01             N-02             777.55     0.0140     -8.89      -9.29      0          0
702              N-02             N-03             790.05     0.0140     -9.29      -9.69      0          0
703              N-03             N-04             250.44     0.0140     -9.69      -9.82      0          0
680A             CS-6A            R-6A             300.00     0.0140     7.00       4.00       0          0
650A             R-6A             R-6C             300.00     0.0088     4.00       -5.70      0          0
W-6A             R-6A             TG-6C            300.00     0.0062     4.00       -3.05      0          0
680B             CS-6B            R-6B             300.00     0.0140     4.75       1.75       0          0
W-6B             R-6B             TG-6C            300.00     0.0138     1.75       -3.05      0          0
650B             R-6B             R-6              300.00     0.0200     1.75       -8.90      0          0
601              N-05Z            N-06             561.28     0.0140     -12.92     -13.21     0          0
602              N-06             JC               400.00     0.0159     -13.21     -13.44     0          0
500              S-R5             S-17             700.28     0.0140     -12.23     -12.75     0          0
501              S-17             S-19             654.67     0.0140     -12.75     -13.20     0          0
301              S-11             S-12             961.57     0.0140     -10.60     -11.25     0          0
101              S-03             S-04             514.02     0.0140     -7.53      -7.87      0          0
901A             9A-01            9A-02            790.00     0.0140     1.78       1.29       0          0
902A             9A-02            9A-03            510.00     0.0140     1.29       0.97       0          0
903A             9A-03            CS-01            480.00     0.0140     0.97       0.67       0          0
180A             CS-01            CS-01A           765.00     0.0140     0.67       0.18       0          0
180B             CS-01A           CS-01B           780.00     0.0140     0.18       -0.32      0          0
180C             CS-01B           CS-01C           800.00     0.0140     -0.32      -0.84      0          0
180D             CS-01C           CS-01D           520.00     0.0140     -0.84      -1.19      0          0
180E             CS-01D           CS-01E           770.00     0.0140     -1.19      -1.69      0          0
901C             9C-01            9C-02            785.00     0.0140     4.59       4.11       0          0
902C             9C-02            9C-03            900.00     0.0140     4.11       3.59       0          0
903C             9C-03            9C-04            675.00     0.0140     3.59       3.19       0          0
680C             CS-6C            R-6C             660.00     0.0377     -2.57      -5.70      0          0
V-80             CS-V             R-V              200.00     0.0140     -7.23      -7.50      0          0
V-90             TG-V             RW-V             400.00     0.0140     -7.50      -8.04      0          0
V-51             RVZ              WW-V             300.00     0.0120     -7.50      -17.00     0          0
951CB            R-9C-Ba          R-9C-Ta          640.00     0.0150     5.52       5.16       0          0
901CB            9CB-02           9CB-03           810.00     0.0140     6.67       5.08       0          0
901CT            9CT-02           9CT-03           810.00     0.0140     18.18      16.60      0          0
903-CT           9CT-04           R-9Ba            810.00     0.0150     15.01      13.42      0          0
903-CB           9CB-04           9CB-05           810.00     0.0140     3.50       1.92       0          0
901B             9B-01            9B-02            784.00     0.0140     12.28      11.14      0          0
905CB            9CB-06           9CB-07           674.00     0.0150     0.56       -0.81      0          0
903B             9B-03            9B-04            816.00     0.0150     9.46       7.78       0          0
907CB            9CB-08           9CB-09           757.50     0.0140     -2.02      -3.23      0          0
909CB            9CB-10           CS-09A-B         820.00     0.0140     -4.20      -5.17      0          0
905B             9B-05            CS-09A-T         645.00     0.0150     7.06       6.33       0          0
981CT            CS-09C-T         R-9D-T           500.00     0.0140     31.10      27.10      0          0
980CD            CS-09C-B         R-9C-D           500.00     0.0140     14.27      10.27      0          0

[ORIFICES]
;;Name           From             To               Type       Offset     Qcoeff     Gated    CloseTime
;;-------------- ---------------- ---------------- ---------- ---------- ---------- -------- ----------
232.1            WW-OH            DISCH            SIDE       -14.13     0.650      NO       0
335.1            R-7B             R-7              SIDE       1.00       0.650      NO       0
338.1            R-7              R7Z              SIDE       -6.77      0.650      NO       0
SG-R6            R-6              R-6D             SIDE       0          0.650      NO       0
443.1            R-6C             R6CZ             SIDE       0          0.650      NO       0
SG-5             R-5              R5Z              SIDE       0          0.650      NO       0
SG-4             R-4              R4Z              SIDE       0          0.650      NO       0
SG-3             R-3              R3Z              SIDE       0          0.650      NO       0
SG-2             R-2              R2Z              SIDE       0          0.650      NO       0
SG-1             R-1              S-R1             SIDE       0          0.650      NO       0
OF-V             R-V              RVZ              SIDE       0          0.650      NO       0

[WEIRS]
;;Name           From             To               Type       CrestHt    Qcoeff     Gated    EndCon   EndCoeff   Surcharge
;;-------------- ---------------- ---------------- ---------- ---------- ---------- -------- -------- ---------- ----------
W-1              R-1              TG-1             TRANSVERSE -0.60      1.840      NO       0        0          YES
W-2              R-2              TG-2             TRANSVERSE 3.00       1.840      NO       0        0          YES
W-3              R-3              TG-3             TRANSVERSE -2.40      1.840      NO       0        0          YES
W-4              R-4              TG-4             TRANSVERSE -3.00      1.840      NO       0        0          YES
W-5              R-5              TG-5             TRANSVERSE -1.10      1.840      NO       0        0          YES
W-9A-BTM         VFM              R-9AB            V-NOTCH    5.33       1.840      NO       0        0          YES
W-9A-TOP         R-9a             TG-9AT           V-NOTCH    7.60       1.840      NO       0        0          YES
W-9B             R-9B             9CB-05           V-NOTCH    16.35      1.840      NO       0        0          YES
427.1            R-9C-T           9CT-01           V-NOTCH    23.00      1.840      NO       0        0          YES
W-9C-BTM         R-9C-B           9CB-01           V-NOTCH    10.68      1.840      NO       0        0          YES
W-6C             R-6C             TG-6C            TRANSVERSE -2.00      1.840      NO       0        0          YES
W-7A             R-7A             TG-7             TRANSVERSE -3.50      1.840      NO       0        0          YES
W-7C             R-7C             TG-7             TRANSVERSE 2.50       1.840      NO       0        0          YES
W-7B             R-7B             TG-7             TRANSVERSE 1.00       1.840      NO       0        0          YES
W-V              R-V              TG-V             TRANSVERSE -4.00      1.840      NO       0        0          YES

[PUMPS]
;;Name           From             To               PumpCurve  Status   Startup    Shutoff
;;-------------- ---------------- ---------------- ---------- -------- ---------- ----------
383.1            WW-V             VDS              PC_383.1   ON       -14.50     -15.00    

[CURVES]
;;Name           Type       X-Value    Y-Value
;;-------------- ---------- ---------- ----------
PC_383.1         Pump3      0          0
;

[XSECTIONS]
;;Link           Shape        Geom1      Geom2      Geom3      Geom4      Barrels
;;-------------- ------------ ---------- ---------- ---------- ---------- ----------
102              RECT_CLOSED  7.39       8.00       0          0          1
103              RECT_CLOSED  7.39       8.00       0          0          1
104              RECT_CLOSED  7.39       8.00       0          0          1
200              RECT_CLOSED  7.39       8.00       0          0          1
201              RECT_CLOSED  7.39       8.00       0          0          1
300              RECT_CLOSED  7.53       9.00       0          0          1
302              RECT_CLOSED  7.53       9.00       0          0          1
400              RECT_CLOSED  7.53       9.00       0          0          1
502              RECT_CLOSED  7.53       9.00       0          0          1
600              RECT_CLOSED  7.30       12.50      0          0          1
705              CIRCULAR     6.00       0          0          0          1
704              CIRCULAR     6.00       0          0          0          1
700              CIRCULAR     6.00       0          0          0          1
INLET            RECT_CLOSED  8.00       14.00      0          0          1
OUTFALL          RECT_CLOSED  8.00       14.00      0          0          1
100              RECT_CLOSED  7.39       8.00       0          0          1
190              RECT_CLOSED  7.33       22.00      0          0          1
250              CIRCULAR     1.33       0          0          0          1
290              HORSESHOE    3.76       2.51       0          0          1
280              HORSESHOE    3.76       2.51       0          0          1
351              CIRCULAR     3.00       0          0          0          1
390              RECT_CLOSED  7.00       12.00      0          0          1
380              RECT_CLOSED  7.00       12.00      0          0          1