;; SWMM5 .inp converted from XPSWMM .xp file
;; Generated by XPSWMM Card Reader
;; Source format: XP_CARD | Original title: Greene County - Village of Cedarville:

[TITLE]
;;Project Title/Notes
Greene County - Village of Cedarville:

[OPTIONS]
FLOW_UNITS           CFS
INFILTRATION         HORTON
FLOW_ROUTING         DYNWAVE
LINK_OFFSETS         DEPTH
MIN_SLOPE            0.0
ALLOW_PONDING        NO
SKIP_STEADY_STATE    NO
ROUTING_STEP         00:00:10
VARIABLE_STEP        0.75
INERTIAL_DAMPING     PARTIAL
NORMAL_FLOW_LIMITED  BOTH
MAX_TRIALS           30

[JUNCTIONS]
;;Name           Elev       MaxDepth   InitDepth  SurDepth   Aponded
;;-------------- ---------- ---------- ---------- ---------- ----------
001              1061.00    0          0          0          0
002              1060.00    0          0          0          0
003              1060.00    0          0          0          0
004              1060.00    0          0          0          0
005              1059.00    0          0          0          0
006              1057.00    0          0          0          0
010              1054.00    0          0          0          0
007              1057.00    0          0          0          0
008              1057.00    0          0          0          0
009              1057.00    0          0          0          0
018              1054.00    0          0          0          0
011              1054.00    0          0          0          0
013A             1054.00    0          0          0          0
012              1054.00    0          0          0          0
013              1054.00    0          0          0          0
015              1053.00    0          0          0          0
014              1054.00    0          0          0          0
016              1053.00    0          0          0          0
017              1053.00    0          0          0          0
019              1045.00    0          0          0          0
021              1043.00    0          0          0          0
020              1044.00    0          0          0          0
022              1043.00    0          0          0          0
026              1042.00    0          0          0          0
023              1044.00    0          0          0          0
024              1043.00    0          0          0          0
025              1042.00    0          0          0          0
027              1041.00    0          0          0          0
028              1040.00    0          0          0          0
029              1038.61    0          0          0          0
034              1035.91    0          0          0          0
030              1041.00    0          0          0          0
030A             1036.29    0          0          0          0
031              1035.80    0          0          0          0
032              1034.87    0          0          0          0
033              1034.39    0          0          0          0
036              1035.54    0          0          0          0
035              1034.82    0          0          0          0
040              1034.88    0          0          0          0
037              1044.06    0          0          0          0
039              1035.87    0          0          0          0
038              1035.21    0          0          0          0
038A             1036.00    0          0          0          0
041              1033.67    0          0          0          0
042              1033.62    0          0          0          0
046              1033.45    0          0          0          0
043              1033.14    0          0          0          0
044              1033.60    0          0          0          0
045              1033.48    0          0          0          0
047              1032.94    0          0          0          0
048              1030.79    0          0          0          0
050              1032.52    0          0          0          0
049              1029.84    0          0          0          0
051              1033.22    0          0          0          0
052              1033.60    0          0          0          0
053              1032.28    0          0          0          0
054              1032.00    0          0          0          0
055              1020.27    0          0          0          0
056              1015.26    0          0          0          0
060              1015.45    0          0          0          0
057              1032.00    0          0          0          0
058              1032.00    0          0          0          0
059              1019.52    0          0          0          0
061              1010.17    0          0          0          0
062              1009.62    0          0          0          0
063              1011.29    0          0          0          0
064              1010.46    0          0          0          0
065              1009.44    0          0          0          0
066              1011.28    0          0          0          0
070              1032.12    0          0          0          0
071              1030.55    0          0          0          0
072              1030.80    0          0          0          0
073              1032.00    0          0          0          0
074              1032.00    0          0          0          0
075              1032.00    0          0          0          0
076              1032.00    0          0          0          0
077              1032.00    0          0          0          0
078              1035.00    0          0          0          0
079              1034.00    0          0          0          0
078A             1036.00    0          0          0          0
082              1033.00    0          0          0          0
080              1033.00    0          0          0          0
081              1033.00    0          0          0          0
083              1033.00    0          0          0          0
084              1030.86    0          0          0          0
085              1035.11    0          0          0          0
086              1034.00    0          0          0          0
087              1035.00    0          0          0          0
088              1035.00    0          0          0          0
089              1036.00    0          0          0          0
090              1036.00    0          0          0          0
091              1037.00    0          0          0          0
092              1037.00    0          0          0          0
093              1037.00    0          0          0          0
094              1038.00    0          0          0          0
095              1038.00    0          0          0          0
096              1037.00    0          0          0          0
097              1037.00    0          0          0          0
099              1036.00    0          0          0          0
098              1036.00    0          0          0          0
100              1036.00    0          0          0          0
101              1035.00    0          0          0          0
102              1035.00    0          0          0          0
103              1034.00    0          0          0          0
104              1034.00    0          0          0          0
105              1034.00    0          0          0          0
107              1035.00    0          0          0          0
108              1035.00    0          0          0          0
109              1035.00    0          0          0          0
110              1037.00    0          0          0          0
111              1037.00    0          0          0          0
110A             1037.00    0          0          0          0
110B             1037.00    0          0          0          0
110C             1037.00    0          0          0          0
110D             1037.00    0          0          0          0
110E             1037.00    0          0          0          0
112              1036.00    0          0          0          0
113              1036.00    0          0          0          0
114              1035.00    0          0          0          0
115              1036.00    0          0          0          0
116              1038.00    0          0          0          0
117              1037.00    0          0          0          0
118              1037.00    0          0          0          0
117A             1038.00    0          0          0          0
119              1039.00    0          0          0          0
120              1039.00    0          0          0          0
121              1037.00    0          0          0          0
122              1054.00    0          0          0          0
124              1054.00    0          0          0          0
123              1054.00    0          0          0          0
127              1053.00    0          0          0          0
125              1054.00    0          0          0          0
126              1053.00    0          0          0          0
128              1053.00    0          0          0          0
129              1053.00    0          0          0          0
134              1053.00    0          0          0          0
130              1054.00    0          0          0          0
131              1054.00    0          0          0          0
132              1053.00    0          0          0          0
133              1053.00    0          0          0          0
136              1053.00    0          0          0          0
137              1056.00    0          0          0          0
138              1056.00    0          0          0          0
139              1055.00    0          0          0          0
140              1055.00    0          0          0          0
144              1055.00    0          0          0          0
141              1056.00    0          0          0          0
142              1055.00    0          0          0          0
143              1055.00    0          0          0          0
145              1054.00    0          0          0          0
146              1054.00    0          0          0          0
147              1052.45    0          0          0          0
148              1050.31    0          0          0          0
149              1046.59    0          0          0          0
150              1047.54    0          0          0          0
151              1046.97    0          0          0          0
152              1048.79    0          0          0          0
153              1050.87    0          0          0          0
154              1043.84    0          0          0          0
155              1043.06    0          0          0          0
156              1037.03    0          0          0          0
157              1038.94    0          0          0          0
158              1031.07    0          0          0          0
159              1024.99    0          0          0          0
160              1018.36    0          0          0          0
161              1011.25    0          0          0          0
162              1052.02    0          0          0          0
163              1050.96    0          0          0          0
164              1052.27    0          0          0          0
165              1062.03    0          0          0          0
167              1050.14    0          0          0          0
168              1051.99    0          0          0          0
169              1048.51    0          0          0          0
171              1047.24    0          0          0          0
170              1050.00    0          0          0          0
172              1043.21    0          0          0          0
177              1046.86    0          0          0          0
173              1049.00    0          0          0          0
174              1048.30    0          0          0          0
175              1038.92    0          0          0          0
176              1033.53    0          0          0          0
178              1048.76    0          0          0          0
179              1041.81    0          0          0          0
185              1045.06    0          0          0          0
180              1042.94    0          0          0          0
181              1053.07    0          0          0          0
182              1050.19    0          0          0          0
183              1049.12    0          0          0          0
184              1047.47    0          0          0          0
186              1045.12    0          0          0          0
216              1046.68    0          0          0          0
214              1046.04    0          0          0          0
187              1053.54    0          0          0          0
188              1052.76    0          0          0          0
189              1049.67    0          0          0          0
189A             1045.70    0          0          0          0
209              1044.20    0          0          0          0
190              1049.13    0          0          0          0
191              1049.33    0          0          0          0
201              1045.38    0          0          0          0
192              1027.78    0          0          0          0
193              1027.13    0          0          0          0
194              1029.99    0          0          0          0
195              1034.00    0          0          0          0
196              1039.90    0          0          0          0
197              1040.05    0          0          0          0
198              1035.40    0          0          0          0
199              1037.62    0          0          0          0
200              1044.46    0          0          0          0
202              1044.15    0          0          0          0
205              1042.95    0          0          0          0
206              1046.06    0          0          0          0
207              1043.74    0          0          0          0
208              1044.43    0          0          0          0
210              1042.02    0          0          0          0
211              1042.29    0          0          0          0
212              1044.67    0          0          0          0
213              1045.09    0          0          0          0
215              1046.45    0          0          0          0
217              1030.00    0          0          0          0
218              1030.00    0          0          0          0
220              1030.00    0          0          0          0
219              1030.00    0          0          0          0
221              1030.00    0          0          0          0
222              1030.00    0          0          0          0
223              1030.00    0          0          0          0
WWTP             1015.00    0          0          0          0
OF               1015.00    0          0          0          0
OUT62            1007.00    0          0          0          0

[STORAGE]
;;Name           Elev       MaxDepth   InitDepth  Shape      Curve/Params
;;-------------- ---------- ---------- ---------- ---------- ----------
LS29             1011.00    0          0          FUNCTIONAL 50.00 0          0
LS27             1045.00    0          0          FUNCTIONAL 20.00 0          0
166              1053.97    0          0          FUNCTIONAL 20.00 0          0
LS30             1020.00    -8.00      0          FUNCTIONAL 50.00 0          0
LS01             1030.00    0          0          FUNCTIONAL 20.00 0          0

[CONDUITS]
;;Name           From             To               Length     Roughness  InOffset   OutOffset  InitFlow   MaxFlow
;;-------------- ---------------- ---------------- ---------- ---------- ---------- ---------- ---------- ----------
001002           001              002              279.00     0.0130     1042.20    1041.00    0          0
002003           002              003              199.00     0.0130     1041.00    1040.10    0          0
003004           003              004              259.00     0.0130     1040.10    1039.00    0          0
004005           004              005              261.00     0.0130     1039.00    1037.90    0          0
005006           005              006              178.00     0.0130     1037.90    1037.20    0          0
006010           006              010              101.00     0.0130     1037.20    1036.80    0          0
007008           007              008              411.00     0.0130     1039.80    1038.00    0          0
008009           008              009              123.00     0.0130     1038.00    1037.50    0          0
009006           009              006              63.00      0.0130     1037.50    1037.20    0          0
010018           010              018              71.00      0.0130     1036.80    1036.50    0          0
011013A          011              013A             200.00     0.0130     1042.50    1041.50    0          0
012013           012              013              79.00      0.0130     1040.80    1040.50    0          0
013015           013              015              207.00     0.0130     1040.50    1039.50    0          0
013A013          013A             013              240.00     0.0130     1041.50    1040.50    0          0
014015           014              015              260.00     0.0130     1040.70    1039.50    0          0
015016           015              016              125.00     0.0130     1039.50    1039.00    0          0
016017           016              017              295.00     0.0130     1039.00    1037.80    0          0
017018           017              018              299.00     0.0130     1037.80    1036.50    0          0
018019           018              019              55.00      0.0130     1036.50    1036.30    0          0
019021           019              021              310.00     0.0130     1036.30    1034.80    0          0
020019           020              019              225.00     0.0130     1036.80    1036.30    0          0
021022           021              022              187.00     0.0130     1034.80    1034.10    0          0
022026           022              026              183.00     0.0130     1034.10    1033.40    0          0
023024           023              024              263.00     0.0130     1035.60    1034.50    0          0
024025           024              025              246.00     0.0130     1034.50    1033.60    0          0
025026           025              026              37.00      0.0130     1033.60    1033.40    0          0
026027           026              027              247.00     0.0130     1033.40    1032.30    0          0
027028           027              028              247.00     0.0130     1032.30    1031.20    0          0
028029           028              029              302.00     0.0130     1031.20    1029.72    0          0
029034           029              034              285.00     0.0130     1029.72    1028.49    0          0
030029           030              029              194.00     0.0130     1030.60    1029.72    0          0
030A031          030A             031              200.00     0.0130     1031.65    1030.94    0          0
031032           031              032              251.00     0.0130     1030.94    1030.07    0          0
032033           032              033              225.00     0.0130     1030.07    1029.36    0          0
033034           033              034              280.00     0.0130     1029.36    1028.49    0          0
034036           034              036              188.00     0.0130     1028.49    1027.97    0          0
035034           035              034              205.00     0.0130     1029.64    1028.49    0          0
036040           036              040              190.00     0.0130     1027.97    1027.48    0          0
037039           037              039              292.00     0.0130     1036.10    1028.46    0          0
038039           038              039              187.00     0.0130     1030.02    1028.46    0          0
038A038          038A             038              147.00     0.0130     1031.00    1030.02    0          0
039040           039              040              319.00     0.0130     1028.46    1027.48    0          0
040041           040              041              273.00     0.0130     1027.48    1025.54    0          0
041042           041              042              66.00      0.0130     1025.54    1026.47    0          0
042046           042              046              94.00      0.0130     1026.47    1026.16    0          0
043044           043              044              147.00     0.0130     1027.53    1026.92    0          0
044045           044              045              247.00     0.0130     1026.92    1026.49    0          0
045046           045              046              39.00      0.0130     1026.49    1026.16    0          0
046047           046              047              127.00     0.0130     1026.16    1025.64    0          0
047048           047              048              194.00     0.0130     1025.64    1025.22    0          0
048050           048              050              225.00     0.0130     1025.22    1024.57    0          0
049048           049              048              175.00     0.0130     1025.80    1025.22    0          0
050051           050              051              204.00     0.0130     1024.57    1023.96    0          0
051052           051              052              59.00      0.0130     1023.96    1023.55    0          0
052053           052              053              179.00     0.0130     1023.55    1022.89    0          0
053054           053              054              331.00     0.0130     1022.89    1018.72    0          0
054055           054              055              235.00     0.0130     1018.72    1015.76    0          0
055056           055              056              422.00     0.0130     1015.76    1004.04    0          0
056060           056              060              77.00      0.0130     1004.04    1008.50    0          0
057058           057              058              229.00     0.0130     1020.80    1019.80    0          0
058059           058              059              221.00     0.0130     1019.80    1013.22    0          0
059060           059              060              174.00     0.0130     1013.22    1008.50    0          0
060061           060              061              100.00     0.0060     1008.50    1007.98    0          0
061062           061              062              65.00      0.0130     1007.98    1008.26    0          0
062063           062              063              129.00     0.0130     1008.26    1007.42    0          0
063064           063              064              110.00     0.0130     1007.42    1007.18    0          0
064065           064              065              77.00      0.0130     1007.18    1006.80    0          0
065066           065              066              80.00      0.0130     1006.80    1006.65    0          0
066LS29          066              LS29             100.00     0.0050     1006.65    1006.35    0          0
070052           070              052              209.00     0.0130     1023.65    1023.55    0          0
071070           071              070              372.00     0.0130     1025.13    1023.65    0          0
072071           072              071              271.00     0.0130     1026.06    1025.13    0          0
073074           073              074              378.00     0.0130     1029.60    1027.90    0          0
074072           074              072              316.00     0.0130     1027.90    1026.06    0          0
075076           075              076              337.00     0.0130     1029.60    1027.80    0          0
076077           076              077              353.00     0.0130     1027.80    1026.80    0          0
077072           077              072              68.00      0.0130     1026.80    1026.06    0          0
078079           078              079              327.00     0.0130     1032.60    1031.10    0          0
078A078          078A             078              200.00     0.0130     1033.10    1032.60    0          0
079082           079              082              132.00     0.0130     1031.10    1027.40    0          0
080081           080              081              79.00      0.0130     1026.60    1026.90    0          0
081082           081              082              138.00     0.0130     1026.90    1027.40    0          0
082083           082              083              74.00      0.0130     1027.40    1027.60    0          0
083077           083              077              195.00     0.0130     1027.60    1026.80    0          0
084072           084              072              238.00     0.0130     1027.07    1026.06    0          0
085084           085              084              155.00     0.0130     1027.52    1027.07    0          0
086085           086              085              110.00     0.0130     1028.60    1027.52    0          0
087086           087              086              205.00     0.0130     1029.60    1028.60    0          0
088087           088              087              246.00     0.0130     1030.80    1029.60    0          0
089088           089              088              315.00     0.0130     1032.20    1030.80    0          0
090089           090              089              47.00      0.0130     1032.30    1032.20    0          0
091090           091              090              290.00     0.0130     1033.60    1032.30    0          0
092091           092              091              52.00      0.0130     1033.80    1033.60    0          0
093092           093              092              99.00      0.0130     1034.20    1033.80    0          0
094093           094              093              119.00     0.0130     1034.70    1034.20    0          0
095096           095              096              295.00     0.0130     1035.20    1034.00    0          0
096097           096              097              125.00     0.0130     1034.00    1033.40    0          0
097099           097              099              163.00     0.0130     1033.40    1032.60    0          0
098099           098              099              240.00     0.0130     1033.60    1032.60    0          0
099100           099              100              166.00     0.0130     1032.60    1031.80    0          0
100101           100              101              172.00     0.0130     1031.80    1031.00    0          0
101102           101              102              189.00     0.0130     1031.00    1030.00    0          0
102103           102              103              197.00     0.0130     1030.00    1029.10    0          0
103104           103              104              172.00     0.0130     1029.10    1028.40    0          0
104085           104              085              57.00      0.0130     1028.40    1027.52    0          0
105104           105              104              274.00     0.0130     1029.70    1028.40    0          0
107108           107              108              253.00     0.0130     1031.60    1030.40    0          0
108105           108              105              174.00     0.0130     1030.40    1029.70    0          0
109108           109              108              155.00     0.0130     1031.10    1030.40    0          0
110111           110              111              103.00     0.0130     1035.50    1035.00    0          0
110A110B         110A             110B             339.00     0.0130     1036.00    1035.00    0          0
110B110C         110B             110C             255.00     0.0130     1035.00    1034.00    0          0
110C110D         110C             110D             299.00     0.0130     1034.00    1033.00    0          0
110D110E         110D             110E             301.00     0.0130     1033.00    1032.00    0          0
110ELS27         110E             LS27             43.00      0.0130     1032.00    1039.77    0          0
111112           111              112              315.00     0.0130     1035.00    1033.50    0          0
112113           112              113              282.00     0.0130     1033.50    1032.10    0          0
113114           113              114              303.00     0.0130     1032.10    1030.70    0          0
114108           114              108              72.00      0.0130     1030.70    1030.40    0          0
115113           115              113              153.00     0.0130     1032.70    1032.10    0          0
116117           116              117              248.00     0.0130     1036.80    1035.80    0          0
117118           117              118              183.00     0.0130     1035.80    1035.00    0          0
117A117          117A             117              229.00     0.0130     1036.80    1035.80    0          0
118112           118              112              334.00     0.0130     1035.00    1033.50    0          0
119118           119              118              280.00     0.0130     1036.10    1035.00    0          0
120119           120              119              525.00     0.0130     1036.60    1036.10    0          0
121120           121              120              203.00     0.0130     1035.50    1036.60    0          0
122124           122              124              281.00     0.0130     1048.30    1047.10    0          0
123124           123              124              138.00     0.0130     1047.70    1047.10    0          0
124127           124              127              315.00     0.0130     1047.10    1045.60    0          0