;; SWMM5 .inp converted from XPSWMM .xp file
;; Generated by XPSWMM Card Reader
;; Source format: XP_CARD | Original title: Kannongawa 35.6ha

[TITLE]
;;Project Title/Notes
Kannongawa 35.6ha

[OPTIONS]
FLOW_UNITS           CMS
INFILTRATION         HORTON
FLOW_ROUTING         DYNWAVE
LINK_OFFSETS         DEPTH
MIN_SLOPE            0.0
ALLOW_PONDING        NO
SKIP_STEADY_STATE    NO
ROUTING_STEP         00:00:15
VARIABLE_STEP        0.75
INERTIAL_DAMPING     PARTIAL
NORMAL_FLOW_LIMITED  BOTH

[JUNCTIONS]
;;Name           Elev       MaxDepth   InitDepth  SurDepth   Aponded
;;-------------- ---------- ---------- ---------- ---------- ----------
1                11.79      0          0          0          0
2                11.68      0          0          0          0
3                11.50      0          0          0          0
4                11.40      0          0          0          0
5                11.43      0          0          0          0
6                11.50      0          0          0          0
7                11.55      0          0          0          0
8                11.42      0          0          0          0
9                11.42      0          0          0          0
10               11.44      0          0          0          0
11               11.31      0          0          0          0
12               11.34      0          0          0          0
13               11.20      0          0          0          0
14               11.36      0          0          0          0
15               11.44      0          0          0          0
16               11.26      0          0          0          0
17               11.22      0          0          0          0
18               11.66      0          0          0          0
19               11.55      0          0          0          0
20               11.24      0          0          0          0
21               11.43      0          0          0          0
22               11.39      0          0          0          0
23               11.44      0          0          0          0
24               11.48      0          0          0          0
25               11.74      0          0          0          0
26               11.76      0          0          0          0
27               11.72      0          0          0          0
28               11.56      0          0          0          0
29               11.47      0          0          0          0
30               11.45      0          0          0          0
31               11.53      0          0          0          0
32               11.48      0          0          0          0
33               11.52      0          0          0          0
34               11.52      0          0          0          0
35               11.34      0          0          0          0
36               11.43      0          0          0          0
37               11.29      0          0          0          0
38               11.40      0          0          0          0
76               11.47      0          0          0          0
78               11.26      0          0          0          0
80               11.32      0          0          0          0
82               11.15      0          0          0          0
84               11.37      0          0          0          0

[CONDUITS]
;;Name           From             To               Length     Roughness  InOffset   OutOffset  InitFlow   MaxFlow
;;-------------- ---------------- ---------------- ---------- ---------- ---------- ---------- ---------- ----------
39               1                2                72.50      0.0130     10.09      9.94       0          0
40               2                3                71.55      0.0130     9.94       9.76       0          0
41               3                4                45.05      0.0130     9.06       9.00       0          0
42               4                5                60.10      0.0130     8.61       8.56       0          0
43               5                6                68.22      0.0130     8.59       8.51       0          0
44               6                7                10.98      0.0130     8.51       8.51       0          0
45               7                8                74.15      0.0130     8.51       8.37       0          0
46               8                9                143.03     0.0130     8.37       8.36       0          0
47               9                10               95.13      0.0130     8.36       8.26       0          0
48               10               11               117.20     0.0130     8.26       8.15       0          0
49               11               12               75.03      0.0130     8.14       8.11       0          0
50               12               13               48.41      0.0130     8.11       8.11       0          0
51               13               14               43.20      0.0130     8.11       8.05       0          0
52               14               15               35.95      0.0130     8.05       8.03       0          0
53               15               16               51.16      0.0130     8.03       7.99       0          0
54               16               17               49.32      0.0130     7.99       7.96       0          0
55               18               19               62.05      0.0130     9.85       9.64       0          0
56               19               3                53.45      0.0130     9.58       9.43       0          0
57               20               21               47.70      0.0130     9.02       8.98       0          0
58               21               22               48.90      0.0130     8.98       8.94       0          0
59               22               23               35.10      0.0130     8.94       8.87       0          0
60               23               24               31.15      0.0130     8.87       8.85       0          0
61               24               6                51.20      0.0130     8.81       8.71       0          0
62               25               26               47.80      0.0130     9.45       9.35       0          0
63               26               27               71.95      0.0130     9.35       9.14       0          0
64               27               28               73.70      0.0130     9.01       8.84       0          0
65               28               6                47.79      0.0130     8.87       8.85       0          0
66               29               30               46.45      0.0130     9.83       9.54       0          0
67               30               31               47.85      0.0130     9.15       9.11       0          0
68               31               32               42.86      0.0130     9.11       9.05       0          0
69               32               33               52.29      0.0130     9.05       8.97       0          0
70               33               34               67.61      0.0130     8.97       8.85       0          0
71               34               10               60.78      0.0130     8.65       8.57       0          0
72               35               36               55.24      0.0130     9.44       9.34       0          0
73               36               37               49.53      0.0130     9.15       9.13       0          0
74               37               38               77.34      0.0130     9.10       9.00       0          0
75               38               11               62.36      0.0130     8.70       8.64       0          0
77               76               17               177.82     0.0130     8.62       8.42       0          0
79               17               78               4.70       0.0130     7.96       7.95       0          0
81               78               80               32.03      0.0130     7.95       7.91       0          0
83               82               78               125.60     0.0130     8.60       8.31       0          0
85               80               84               34.67      0.0130     7.91       7.83       0          0

[XSECTIONS]
;;Link           Shape        Geom1      Geom2      Geom3      Geom4      Barrels
;;-------------- ------------ ---------- ---------- ---------- ---------- ----------
39               CIRCULAR     0.70       0.00       0          0          1
40               CIRCULAR     0.70       0          0          0          1
41               CIRCULAR     0.90       0          0          0          1
42               CIRCULAR     1.20       0          0          0          1
43               CIRCULAR     1.20       0          0          0          1
44               RECT_CLOSED  1.30       1.30       0          0          1
45               RECT_CLOSED  1.30       1.30       0          0          1
46               RECT_CLOSED  1.30       1.30       0          0          1
47               RECT_CLOSED  1.40       1.40       0          0          1
48               RECT_CLOSED  1.50       1.60       0          0          1
49               RECT_CLOSED  1.65       1.65       0          0          1
50               RECT_CLOSED  1.65       1.65       0          0          1
51               RECT_CLOSED  1.65       1.65       0          0          1
52               RECT_CLOSED  1.65       1.65       0          0          1
53               RECT_CLOSED  1.65       1.65       0          0          1
54               RECT_CLOSED  1.65       1.65       0          0          1
55               CIRCULAR     0.60       0          0          0          1
56               CIRCULAR     0.60       0          0          0          1
57               CIRCULAR     0.60       0          0          0          1
58               CIRCULAR     0.60       0          0          0          1
59               CIRCULAR     0.60       0          0          0          1
60               CIRCULAR     0.60       0          0          0          1
61               CIRCULAR     0.70       0          0          0          1
62               CIRCULAR     0.60       0          0          0          1
63               CIRCULAR     0.60       0          0          0          1
64               CIRCULAR     0.60       0          0          0          1
65               CIRCULAR     0.60       0          0          0          1
66               CIRCULAR     0.60       0          0          0          1
67               CIRCULAR     0.70       0          0          0          1
68               CIRCULAR     0.70       0          0          0          1
69               CIRCULAR     0.80       0          0          0          1
70               CIRCULAR     0.80       0          0          0          1
71               CIRCULAR     0.90       0          0          0          1
72               CIRCULAR     0.60       0          0          0          1
73               CIRCULAR     0.60       0          0          0          1
74               CIRCULAR     0.70       0          0          0          1
75               CIRCULAR     0.70       0          0          0          1
77               CIRCULAR     1.10       0          0          0          1
79               RECT_CLOSED  1.80       1.80       0          0          1
81               RECT_CLOSED  1.80       1.80       0          0          1
83               CIRCULAR     0.70       0          0          0          1
85               RECT_CLOSED  1.80       1.80       0          0          1

[LOSSES]
;;Link           Inlet      Outlet     Average    Flap Gate
;;-------------- ---------- ---------- ---------- ----------
39               0          0          0          NO
40               0          0          0          NO
41               0          0          0          NO
42               0          0          0          NO
43               0          0          0          NO
44               0          0          0          NO
45               0          0          0          NO
46               0          0          0          NO
47               0          0          0          NO
48               0          0          0          NO
49               0          0          0          NO
50               0          0          0          NO
51               0          0          0          NO
52               0          0          0          NO
53               0          0          0          NO
54               0          0          0          NO
55               0          0          0          NO
56               0          0          0          NO
57               0          0          0          NO
58               0          0          0          NO
59               0          0          0          NO
60               0          0          0          NO
61               0          0          0          NO
62               0          0          0          NO
63               0          0          0          NO
64               0          0          0          NO
65               0          0          0          NO
66               0          0          0          NO
67               0          0          0          NO
68               0          0          0          NO
69               0          0          0          NO
70               0          0          0          NO
71               0          0          0          NO
72               0          0          0          NO
73               0          0          0          NO
74               0          0          0          NO
75               0          0          0          NO
77               0          0          0          NO
79               0          0          0          NO
81               0          0          0          NO
83               0          0          0          NO
85               0          0          0          NO

[COORDINATES]
;;Node           X-Coord            Y-Coord
;;-------------- ------------------ ------------------
1                58.69              28.42             
2                71.85              33.52             
3                86.18              36.86             
4                95.85              38.86             
5                93.18              51.19             
6                90.18              64.19             
7                89.51              67.19             
8                88.15              82.19             
9                83.51              111.19            
10               84.51              130.86            
11               76.88              152.92            
12               92.48              158.19            
13               102.48             161.52            
14               111.18             163.86            
15               108.51             171.19            
16               106.66             180.13            
17               102.99             191.26            
18               91.31              14.31             
19               88.80              26.71             
20               118.64             44.31             
21               115.97             54.97             
22               114.31             63.31             
23               106.97             63.97             
24               100.31             64.31             
25               57.97              52.31             
26               67.64              51.97             
27               64.64              66.31             
28               79.64              65.64             
29               48.28              98.41             
30               54.04              101.97            
31               50.64              111.64            
32               48.31              119.37            
33               58.31              123.31            
34               71.64              127.64            
35               32.31              130.67            
36               42.31              136.31            
37               51.64              141.27            
38               66.31              148.94            
76               79.71              194.09            
78               111.66             192.94            
80               121.33             195.27            
82               102.94             208.03            
84               133.16             197.07            

[MAP]
DIMENSIONS 32.31 14.31 133.16 208.03
Units      None

[REPORT]
INPUT            YES
SUBCATCHMENTS    ALL
NODES            ALL
LINKS            ALL



