;; SWMM5 .inp converted from XPSWMM .xp file
;; Generated by XPSWMM Card Reader
;; Source format: XP_CARD | Original title: Yukong HOU Wastewater Treatment Plant

[TITLE]
;;Project Title/Notes
Yukong HOU Wastewater Treatment Plant

[OPTIONS]
FLOW_UNITS           CMS
INFILTRATION         HORTON
FLOW_ROUTING         DYNWAVE
LINK_OFFSETS         DEPTH
MIN_SLOPE            0.0
ALLOW_PONDING        NO
SKIP_STEADY_STATE    NO
ROUTING_STEP         00:00:20
VARIABLE_STEP        0.75
INERTIAL_DAMPING     PARTIAL
NORMAL_FLOW_LIMITED  BOTH
MAX_TRIALS           50
HEAD_TOLERANCE       .001

[JUNCTIONS]
;;Name           Elev       MaxDepth   InitDepth  SurDepth   Aponded
;;-------------- ---------- ---------- ---------- ---------- ----------
04A01            14.95      0          0          0          0
04A02            15.10      0          0          0          0
04A03            15.00      0          0          0          0
04A04            15.00      0          0          0          0
04A05            15.00      0          0          0          0
04A06            15.00      0          0          0          0
04A07            15.00      0          0          0          0
04A08            15.00      0          0          0          0
04A09            15.00      0          0          0          0
04A10            15.00      0          0          0          0
04A11            13.05      0          0          0          0
04A12            13.00      0          0          0          0
04M11            13.00      0          0          0          0
01A01            12.10      0          0          0          0
04B01            14.95      0          0          0          0
04B02            14.95      0          0          0          0
04B03            14.95      0          0          0          0
04C01            14.95      0          0          0          0
04C02            14.95      0          0          0          0
04C03            14.95      0          0          0          0
04C04            14.95      0          0          0          0
04C05            14.95      0          0          0          0
04D01            14.95      0          0          0          0
04D02            14.95      0          0          0          0
04D03            14.95      0          0          0          0
04E01            14.95      0          0          0          0
04E02            14.95      0          0          0          0
04F01            14.95      0          0          0          0
04F02            14.95      0          0          0          0
04G01            14.95      0          0          0          0
04G02            14.95      0          0          0          0
04G03            14.95      0          0          0          0
04G04            14.95      0          0          0          0
04G05            14.95      0          0          0          0
04H01            14.95      0          0          0          0
04H02            14.95      0          0          0          0
04H03            14.95      0          0          0          0
04H04            14.95      0          0          0          0
04H05            14.95      0          0          0          0
04J01            14.95      0          0          0          0
04J02            14.95      0          0          0          0
04K01            14.95      0          0          0          0
04K02            14.95      0          0          0          0
04L01            14.95      0          0          0          0
04L02            15.10      0          0          0          0
04L03            14.95      0          0          0          0
04M01            14.95      0          0          0          0
04M02            14.95      0          0          0          0
04M03            14.95      0          0          0          0
04M04            15.10      0          0          0          0
04M05            15.10      0          0          0          0
04M06            15.10      0          0          0          0
04M07            15.10      0          0          0          0
04M08            15.10      0          0          0          0
04M09            15.10      0          0          0          0
04M10            13.00      0          0          0          0
04N01            14.95      0          0          0          0
04N02            15.10      0          0          0          0
04N03            15.10      0          0          0          0
04P01            14.95      0          0          0          0
04P02            14.95      0          0          0          0
04N04            14.95      0          0          0          0
04Q01            14.95      0          0          0          0
04Q02            14.95      0          0          0          0
04R01            14.95      0          0          0          0
04R02            14.95      0          0          0          0
04S01            14.95      0          0          0          0
04S02            14.95      0          0          0          0
07A01            19.45      0          0          0          0
07A02            19.60      0          0          0          0
07A03            19.60      0          0          0          0
07A04            19.60      0          0          0          0
07A05            19.60      0          0          0          0
07A06            19.60      0          0          0          0
07A07            19.60      0          0          0          0
07A08            19.60      0          0          0          0
07A09            19.60      0          0          0          0
07A10            19.60      0          0          0          0
07A11            14.15      0          0          0          0
07A12            13.00      0          0          0          0
07J12            13.00      0          0          0          0
07B01            19.45      0          0          0          0
07B02            19.45      0          0          0          0
07C01            19.45      0          0          0          0
07C02            19.45      0          0          0          0
07J11            14.15      0          0          0          0
07J02            19.45      0          0          0          0
07J03            19.60      0          0          0          0
07J04            19.45      0          0          0          0
07J05            19.45      0          0          0          0
07J06            19.60      0          0          0          0
07J07            19.60      0          0          0          0
07J08            19.60      0          0          0          0
07J09            19.60      0          0          0          0
07J10            19.60      0          0          0          0
07J01            19.45      0          0          0          0
07D01            19.45      0          0          0          0
07D02            19.45      0          0          0          0
07D03            19.45      0          0          0          0
07D04            19.45      0          0          0          0
07D05            19.45      0          0          0          0
07E01            19.45      0          0          0          0
07F01            19.45      0          0          0          0
07F02            19.45      0          0          0          0
07G01            19.45      0          0          0          0
07H01            19.45      0          0          0          0
07H02            19.45      0          0          0          0
07H04            19.45      0          0          0          0
07H05            19.45      0          0          0          0
07H03            19.45      0          0          0          0
07I01            19.45      0          0          0          0
07K01            19.45      0          0          0          0
07L01            19.45      0          0          0          0
07L02            19.45      0          0          0          0
07L03            19.45      0          0          0          0
07L04            19.45      0          0          0          0
07M01            19.45      0          0          0          0
07M02            19.45      0          0          0          0
07N01            19.45      0          0          0          0
07N02            19.45      0          0          0          0
07P01            19.45      0          0          0          0
07P02            19.45      0          0          0          0
07P03            19.60      0          0          0          0
10A01            19.45      0          0          0          0
10A02            19.60      0          0          0          0
10A03            19.60      0          0          0          0
10A04            19.60      0          0          0          0
10A05            19.60      0          0          0          0
10A06            19.60      0          0          0          0
10A07            19.60      0          0          0          0
10A08            19.60      0          0          0          0
10A09            19.60      0          0          0          0
10A10            19.60      0          0          0          0
10A11            19.60      0          0          0          0
10A12            19.60      0          0          0          0
10A13            19.60      0          0          0          0
10A15            18.87      0          0          0          0
10A16            18.17      0          0          0          0
10A17            17.73      0          0          0          0
10A18            16.38      0          0          0          0
10J15            15.03      0          0          0          0
10A14            19.60      0          0          0          0
10B01            19.45      0          0          0          0
10B02            19.45      0          0          0          0
10C01            19.45      0          0          0          0
10C02            19.45      0          0          0          0
10C06            19.60      0          0          0          0
10C03            19.45      0          0          0          0
10C04            19.45      0          0          0          0
10C05            19.60      0          0          0          0
10D01            19.45      0          0          0          0
10D02            19.45      0          0          0          0
10E01            19.45      0          0          0          0
10F01            19.45      0          0          0          0
10E03            19.45      0          0          0          0
10E04            19.45      0          0          0          0
10E02            19.45      0          0          0          0
10G02            19.60      0          0          0          0
10G01            19.45      0          0          0          0
10H01            19.45      0          0          0          0
10V02            19.45      0          0          0          0
10V01            19.45      0          0          0          0
10J01            19.45      0          0          0          0
10J02            19.45      0          0          0          0
10J03            19.60      0          0          0          0
10J04            19.60      0          0          0          0
10J05            19.60      0          0          0          0
10J06            19.60      0          0          0          0
10J07            19.60      0          0          0          0
10J08            19.60      0          0          0          0
10J09            19.60      0          0          0          0
10J10            19.60      0          0          0          0
10J11            19.60      0          0          0          0
10J12            19.60      0          0          0          0
10J13            19.60      0          0          0          0
10J14            16.77      0          0          0          0
10K01            19.45      0          0          0          0
10K02            19.45      0          0          0          0
10L01            19.45      0          0          0          0
10L02            19.45      0          0          0          0
10M01            19.45      0          0          0          0
10M02            19.45      0          0          0          0
10M03            19.60      0          0          0          0
10N01            19.45      0          0          0          0
10N02            19.45      0          0          0          0
10N03            19.45      0          0          0          0
10N04            19.60      0          0          0          0
10N05            19.60      0          0          0          0
10N06            19.60      0          0          0          0
10N07            19.60      0          0          0          0
10N08            19.60      0          0          0          0
10N10            19.60      0          0          0          0
10N11            19.60      0          0          0          0
10N12            19.60      0          0          0          0
10N13            19.60      0          0          0          0
10N14            19.60      0          0          0          0
10N15            19.60      0          0          0          0
10N16            19.60      0          0          0          0
10N17            19.60      0          0          0          0
10N18            19.60      0          0          0          0
10N19            19.60      0          0          0          0
10N20            15.31      0          0          0          0
10N21            14.16      0          0          0          0
10P01            19.45      0          0          0          0
10Q01            19.45      0          0          0          0
10R01            19.45      0          0          0          0
10N09            19.60      0          0          0          0
10S01            19.45      0          0          0          0
10T01            19.45      0          0          0          0
10T02            19.45      0          0          0          0
10T03            19.45      0          0          0          0
10T04            19.45      0          0          0          0
AC1C1            12.10      0          0          0          0
C1B1             12.00      0          0          0          0
OUTFALL          12.00      0          0          0          0

[STORAGE]
;;Name           Elev       MaxDepth   InitDepth  Shape      Curve/Params
;;-------------- ---------- ---------- ---------- ---------- ----------
9801             12.25      0          0          FUNCTIONAL 0 0          0
9802             12.25      0          0          FUNCTIONAL 515.95 0          0
9801b            12.25      0          0          FUNCTIONAL 8.00 0          0

[CONDUITS]
;;Name           From             To               Length     Roughness  InOffset   OutOffset  InitFlow   MaxFlow
;;-------------- ---------------- ---------------- ---------- ---------- ---------- ---------- ---------- ----------
4A1-2            04A01            04A02            12.85      0.0150     13.40      13.34      0          0
4A2-3            04A02            04A03            16.45      0.0150     13.19      13.10      0          0
4A3-4            04A03            04A04            8.70       0.0150     13.10      13.06      0          0
4A4-5            04A04            04A05            12.10      0.0150     13.06      13.00      0          0
4A5-6            04A05            04A06            22.20      0.0150     13.00      12.89      0          0
4A6-7            04A06            04A07            18.40      0.0150     12.89      12.79      0          0
4A7-8            04A07            04A08            18.60      0.0150     12.74      12.65      0          0
4A8-9            04A08            04A09            17.30      0.0150     12.65      12.56      0          0
4A9-10           04A09            04A10            15.40      0.0150     12.56      12.49      0          0
4A10-1           04A10            04A11            11.30      0.0150     11.86      11.80      0          0
4A11-2           04A11            04A12            5.10       0.0150     11.00      10.97      0          0
A12M11           04A12            04M11            84.10      0.0150     9.30       8.99       0          0
4M11A1           04M11            01A01            179.29     0.0150     8.84       8.73       0          0
4B1-2            04B01            04B02            11.50      0.0150     13.93      13.87      0          0
4B2-3            04B02            04B03            23.10      0.0150     13.82      13.70      0          0
4B3-A2           04B03            04A02            2.50       0.0150     13.36      13.35      0          0
4C1-2            04C01            04C02            9.00       0.0150     14.00      13.96      0          0
4C2-3            04C02            04C03            10.90      0.0150     13.59      13.54      0          0
4C3-4            04C03            04C04            12.40      0.0150     13.54      13.47      0          0
4C4-5            04C04            04C05            9.73       0.0150     13.47      13.43      0          0
4C5-A3           04C05            04A03            18.33      0.0150     13.38      13.28      0          0
4D1-2            04D01            04D02            10.00      0.0150     13.53      13.48      0          0
4D2-3            04D02            04D03            8.94       0.0150     13.48      13.39      0          0
4D3-A4           04D03            04A04            2.61       0.0150     13.37      13.32      0          0
4E1-2            04E01            04E02            15.80      0.0150     13.50      13.42      0          0
4E2-A4           04E02            04A04            22.80      0.0150     13.37      13.25      0          0
F1-2             04F01            04F02            15.96      0.0150     14.00      13.92      0          0
4F2-A5           04F02            04A05            2.50       0.0150     13.36      13.35      0          0
4G1-2            04G01            04G02            15.90      0.0150     13.68      13.60      0          0
4G2-3            04G02            04G03            20.90      0.0150     13.55      13.45      0          0
4G3-4            04G03            04G04            13.75      0.0150     13.40      13.33      0          0
4G4-5            04G04            04G05            3.47       0.0150     13.28      13.27      0          0
4G5-A6           04G05            04A06            6.68       0.0150     13.27      13.23      0          0
4H1-2            04H01            04H02            15.90      0.0150     13.45      13.37      0          0
4H2-3            04H02            04H03            20.90      0.0150     13.32      13.21      0          0
4H3-4            04H03            04H04            15.78      0.0150     13.16      13.08      0          0
4H4-5            04H04            04H05            3.52       0.0150     13.03      13.02      0          0
4H5-A6           04H05            04A06            6.23       0.0150     13.02      12.99      0          0
4J2-A7           04J02            04A07            6.70       0.0150     13.38      13.35      0          0
4K2-A8           04K02            04A08            7.60       0.0150     13.44      13.40      0          0
4L1-2            04L01            04L02            16.00      0.0150     14.19      14.19      0          0
4L2-3            04L02            04L03            2.50       0.0150     14.19      14.17      0          0
4L3-A9           04L03            04A09            7.00       0.0150     13.38      13.35      0          0
4M1-2            04M01            04M02            12.50      0.0150     13.45      13.34      0          0
4M2-3            04M02            04M03            16.68      0.0150     13.34      13.26      0          0
4M3-4            04M03            04M04            17.83      0.0150     13.21      13.12      0          0
4M4-5            04M04            04M05            23.43      0.0150     12.85      12.74      0          0
4M5-6            04M05            04M06            13.00      0.0150     12.74      12.67      0          0
4M6-7            04M06            04M07            14.00      0.0150     12.67      12.60      0          0
04M7-8           04M07            04M08            20.95      0.0150     12.60      12.49      0          0
4M8-9            04M08            04M09            18.21      0.0150     12.49      12.40      0          0
4M9-10           04M09            04M10            13.70      0.0150     12.40      11.90      0          0
4M10-1           04M10            04M11            5.10       0.0150     11.00      8.99       0          0
4N1-2            04N01            04N02            15.97      0.0150     13.45      13.37      0          0
4N2-3            04N02            04N03            37.08      0.0150     13.20      13.02      0          0
4N3M4            04N03            04M04            22.45      0.0150     12.96      12.85      0          0
4P1-2            04P01            04P02            17.25      0.0150     14.05      13.45      0          0
4P2-M5           04P02            04M05            3.00       0.0150     13.40      13.39      0          0
4N4-3            04N04            04N03            11.20      0.0150     13.45      13.39      0          0
4Q1-2            04Q01            04Q02            15.10      0.0150     13.95      13.88      0          0
4Q2-M7           04Q02            04M07            6.08       0.0150     13.40      13.37      0          0
4R1-2            04R01            04R02            15.00      0.0150     14.05      13.97      0          0
4R2-M8           04R02            04M08            23.01      0.0150     13.40      13.37      0          0
4S1-2            04S01            04S02            13.00      0.0150     13.40      13.34      0          0
4S2-M8           04S02            04M08            6.80       0.0150     13.29      13.25      0          0
4A1-YT           01A01            9801             23.80      0.0150     8.73       8.67       0          0
4J1-A7           04J01            04A07            17.10      0.0150     13.38      13.35      0          0
4K1-A8           04K01            04A08            7.41       0.0150     13.44      13.40      0          0
7A1-2            07A01            07A02            14.20      0.0150     18.50      18.43      0          0
7A2-3            07A02            07A03            5.64       0.0150     18.32      18.30      0          0
7A3-4            07A03            07A04            24.38      0.0150     17.55      17.23      0          0
7A4-5            07A04            07A05            7.57       0.0150     17.23      17.19      0          0
7A5-6            07A05            07A06            18.35      0.0150     17.19      17.10      0          0
7A6-7            07A06            07A07            15.35      0.0150     17.10      17.02      0          0
7A7-8            07A07            07A08            23.30      0.0150     17.02      16.91      0          0
7A8-9            07A08            07A09            10.60      0.0150     16.91      16.85      0          0
7A9-10           07A09            07A10            11.50      0.0150     16.85      16.80      0          0
7A10-1           07A10            07A11            10.90      0.0150     16.80      12.50      0          0
7A11-2           07A11            07A12            4.90       0.0150     11.00      10.97      0          0
A12J12           07A12            07J12            70.00      0.0150     10.29      10.01      0          0
7B1-2            07B01            07B02            14.21      0.0150     18.55      18.48      0          0
7B2-A2           07B02            07A02            10.87      0.0150     18.43      18.38      0          0
7C1-2            07C01            07C02            15.27      0.0150     18.20      18.12      0          0
7C2-A3           07C02            07A03            6.50       0.0150     18.07      18.04      0          0
7J11-2           07J11            07J12            4.90       0.0150     11.00      10.01      0          0
J12A12           07J12            04A12            70.00      0.0150     9.62       9.40       0          0
7J2-3            07J02            07J03            4.00       0.0150     18.69      18.67      0          0
7J3-4            07J03            07J04            7.63       0.0150     18.67      18.64      0          0
7J4-5            07J04            07J05            10.75      0.0150     18.59      18.53      0          0
7J5-6            07J05            07J06            7.85       0.0150     17.89      17.86      0          0
7J6-7            07J06            07J07            13.43      0.0150     17.86      17.79      0          0
J7-8             07J07            07J08            31.40      0.0150     17.39      17.23      0          0
7J8-9            07J08            07J09            32.50      0.0150     17.23      17.12      0          0
7J9-10           07J09            07J10            28.75      0.0150     17.12      16.93      0          0
7J10-1           07J10            07J11            11.15      0.0150     16.93      12.50      0          0
7J1-2            07J01            07J02            11.13      0.0150     18.80      18.74      0          0
7D1-2            07D01            07D02            13.05      0.0150     17.85      17.73      0          0
7D2-4            07D02            07D04            13.52      0.0150     17.73      17.66      0          0
7D3-4            07D03            07D04            26.66      0.0150     17.79      17.71      0          0
7D4-5            07D04            07D05            9.70       0.0150     17.56      17.51      0          0
7D5-A4           07D05            07A04            4.45       0.0150     17.51      17.49      0          0
7E1-A6           07E01            07A06            8.21       0.0150     17.99      17.95      0          0
7F1-2            07F01            07F02            5.31       0.0150     18.00      17.93      0          0
7F2-A7           07F02            07A07            25.93      0.0150     17.88      17.85      0          0
7G1-A7           07G01            07A07            7.30       0.0150     17.99      17.95      0          0
7H1-2            07H01            07H02            9.80       0.0150     18.18      18.13      0          0
7H2-4            07H02            07H04            10.47      0.0150     18.08      18.03      0          0
7H4-5            07H04            07H05            11.67      0.0150     17.93      17.87      0          0
4H5-A9           07H05            07A09            9.10       0.0150     17.87      17.83      0          0
7H3-4            07H03            07H04            15.30      0.0150     18.48      18.40      0          0
7I1-A8           07I01            07A08            14.71      0.0150     18.62      18.55      0          0
7K1-J6           07K01            07J06            13.50      0.0150     18.72      17.88      0          0
7L1-2            07L01            07L02            11.07      0.0150     18.45      18.39      0          0
7L2-3            07L02            07L03            12.70      0.0150     18.15      18.09      0          0
7L3-4            07L03            07L04            9.00       0.0150     18.04      17.99      0          0
7L4-A8           07L04            07J08            4.87       0.0150     17.94      17.92      0          0
7M1-2            07M01            07M02            5.97       0.0150     18.44      18.41      0          0
7M2-J8           07M02            07J08            23.37      0.0150     18.16      18.04      0          0
7N1-2            07N01            07N02            15.00      0.0150     17.95      17.88      0          0
7N2-J9           07N02            07J09            5.82       0.0150     17.82      17.80      0          0
7P1-2            07P01            07P02            17.99      0.0150     17.95      17.86      0          0
7P2-3            07P02            07P03            5.50       0.0150     17.81      17.78      0          0
7P3-J9           07P03            07J09            5.50       0.0150     17.78      17.76      0          0
10A1-2           10A01            10A02            11.10      0.0150     18.37      18.32      0          0
10A2-3           10A02            10A03            18.85      0.0150     18.06      17.97      0          0
10A3-4           10A03            10A04            10.10      0.0150     17.92      17.87      0          0
10A4-5           10A04            10A05            15.25      0.0150     17.87      17.79      0          0
10A5-6           10A05            10A06            8.75       0.0150     17.57      17.57      0          0
10A6-7           10A06            10A07            15.25      0.0150     17.52      17.44      0          0
10A7-8           10A07            10A08            13.00      0.0150     17.44      17.38      0          0
10A8-9           10A08            10A09            7.50       0.0150     17.38      17.34      0          0
10A910           10A09            10A10            11.50      0.0150     17.34      17.28      0          0
10A101           10A10            10A11            6.22       0.0150     17.28      17.52      0          0
10A112           10A11            10A12            19.30      0.0150     17.25      17.16      0          0
10A123           10A12            10A13            7.50       0.0150     17.16      17.12      0          0
10A134           10A13            10A14            19.98      0.0150     17.12      17.02      0          0
10A157           10A15            10A17            5.10       0.0150     15.73      15.70      0          0
10A167           10A16            10A17            6.53       0.0150     15.97      15.70      0          0
10A178           10A17            10A18            20.00      0.0150     14.72      14.42      0          0