[OPTIONS]
FLOW_UNITS LPS
INFILTRATION CURVE_NUMBER
FLOW_ROUTING DYNWAVE
START_DATE 01/01/2000
START_TIME 00:00:00
REPORT_START_DATE 01/01/2000
REPORT_START_TIME 00:00:00
END_DATE 01/02/2000
END_TIME 00:00:00
SWEEP_START 1/1
SWEEP_END 12/31
DRY_DAYS 0
WET_STEP 00:01:00
DRY_STEP 01:00:00
ROUTING_STEP 00:00:01
REPORT_STEP 00:01:00
ALLOW_PONDING YES
INERTIAL_DAMPING NONE
VARIABLE_STEP 0.75
LENGTHENING_STEP 0
MIN_SURFAREA 0
NORMAL_FLOW_LIMITED BOTH
FORCE_MAIN_EQUATION H-W
MIN_SLOPE 0
SKIP_STEADY_STATE NO
IGNORE_ROUTING NO
IGNORE_QUALITY NO
IGNORE_SNOWMELT NO
IGNORE_GROUNDWATER NO
TEMPDIR "C:\Users\Hp\AppData\Local\Temp\"
MAX_TRIALS 8
HEAD_TOLERANCE 0.0015240000000061
SYS_FLOW_TOL 5
LAT_FLOW_TOL 5
MINIMUM_STEP 0.5
THREADS 4
SURCHARGE_METHOD EXTRAN
RULE_STEP 00:00:00


[RAINGAGES]
10-Yr_TI-2024-143-10_Yr_15_min-10yr INTENSITY 00:01:00 1.0 TIMESERIES 10-Yr_TI-2024-143-10_Yr_15_min-10yr_TS  *  IN 
10-Yr_TI-2024-143-10_Yr_30_min-10yr INTENSITY 00:01:00 1.0 TIMESERIES 10-Yr_TI-2024-143-10_Yr_30_min-10yr_TS  *  IN 
10-Yr_TI-2024-143-10_Yr_45_min-10yr INTENSITY 00:01:00 1.0 TIMESERIES 10-Yr_TI-2024-143-10_Yr_45_min-10yr_TS  *  IN 
10-Yr_TI-2024-143-10_Yr_60_min-10yr INTENSITY 00:01:00 1.0 TIMESERIES 10-Yr_TI-2024-143-10_Yr_60_min-10yr_TS  *  IN 
10-Yr_TI-2024-143-10_Yr_90_min-10yr INTENSITY 00:01:00 1.0 TIMESERIES 10-Yr_TI-2024-143-10_Yr_90_min-10yr_TS  *  IN 
10-Yr_TI-2024-143-10_Yr_120_min-10yr INTENSITY 00:01:00 1.0 TIMESERIES 10-Yr_TI-2024-143-10_Yr_120_min-10yr_TS  *  IN 
10-Yr_TI-2024-143-10_Yr_180_min-10yr INTENSITY 00:01:00 1.0 TIMESERIES 10-Yr_TI-2024-143-10_Yr_180_min-10yr_TS  *  IN 
10-Yr_TI-2024-143-10_Yr_240_min-10yr INTENSITY 00:01:00 1.0 TIMESERIES 10-Yr_TI-2024-143-10_Yr_240_min-10yr_TS  *  IN 
10-Yr_TI-2024-143-10_Yr_300_min-10yr INTENSITY 00:01:00 1.0 TIMESERIES 10-Yr_TI-2024-143-10_Yr_300_min-10yr_TS  *  IN 
10-Yr_TI-2024-143-10_Yr_360_min-10yr INTENSITY 00:01:00 1.0 TIMESERIES 10-Yr_TI-2024-143-10_Yr_360_min-10yr_TS  *  IN 
10-Yr_TI-2024-143-10_Yr_720_min-10yr INTENSITY 00:01:00 1.0 TIMESERIES 10-Yr_TI-2024-143-10_Yr_720_min-10yr_TS  *  IN 
10-Yr_TI-2024-143-10_Yr_1440_min-10yr INTENSITY 00:01:00 1.0 TIMESERIES 10-Yr_TI-2024-143-10_Yr_1440_min-10yr_TS  *  IN 



[SUBCATCHMENTS]
;;                                                   Total    Pcnt.             Pcnt.    Curb
;;Name             Raingage         Outlet           Area     Imperv   Width    Slope    Length
;;----------------------------------------------------------------------------------------------
CM-50 10-Yr_TI-2024-143-10_Yr_1440_min-10yr CB-82_Surface_Loading 1.01225954962892 60 82 0.333333333333333 0  
CM-51 10-Yr_TI-2024-143-10_Yr_1440_min-10yr CB-82_Surface_Loading 0.220464221711308 90 45 2 0  
CM-52 10-Yr_TI-2024-143-10_Yr_1440_min-10yr CB-82_Surface 0.174694042011442 90 45 2 0  
CM-53 10-Yr_TI-2024-143-10_Yr_1440_min-10yr CB-83_Surface 0.183659856754986 90 45 2 0  
CM-54 10-Yr_TI-2024-143-10_Yr_1440_min-10yr CB-85_Surface_Loading 0.22941971187871 90 45 2 0  
CM-55 10-Yr_TI-2024-143-10_Yr_1440_min-10yr CB-86_Surface_Loading 0.252770174286521 90 45 2 0  
CM-56 10-Yr_TI-2024-143-10_Yr_1440_min-10yr CB-86_Surface 0.19910963233097 90 45 2 0  
CM-57 10-Yr_TI-2024-143-10_Yr_1440_min-10yr CB-87_Surface 0.228168424056768 90 45 2 0  
CM-58 10-Yr_TI-2024-143-10_Yr_1440_min-10yr CB-89_Surface_Loading 0.274567858547485 90 45 2 0  
CM-59 10-Yr_TI-2024-143-10_Yr_1440_min-10yr CB-82_Surface 0.668601324114864 60 54 0.333333333333333 0  
CM-61 10-Yr_TI-2024-143-10_Yr_1440_min-10yr CB-86_Surface_Loading 0.953573189088187 60 82 0.333333333333333 0  
CM-62 10-Yr_TI-2024-143-10_Yr_1440_min-10yr CB-86_Surface 0.5554682931493 60 54 0.333333333333333 0  

[SUBAREAS]
CM-50 0.013 0.15 2.54 5.08 100 PERVIOUS 100 
CM-51 0.013 0.15 2.54 5.08 100 OUTLET 100 
CM-52 0.013 0.15 2.54 5.08 100 OUTLET 100 
CM-53 0.013 0.15 2.54 5.08 100 OUTLET 100 
CM-54 0.013 0.15 2.54 5.08 100 OUTLET 100 
CM-55 0.013 0.15 2.54 5.08 100 OUTLET 100 
CM-56 0.013 0.15 2.54 5.08 100 OUTLET 100 
CM-57 0.013 0.15 2.54 5.08 100 OUTLET 100 
CM-58 0.013 0.15 2.54 5.08 100 OUTLET 100 
CM-59 0.013 0.15 2.54 5.08 100 PERVIOUS 100 
CM-61 0.013 0.15 2.54 5.08 100 PERVIOUS 100 
CM-62 0.013 0.15 2.54 5.08 100 PERVIOUS 100 

[INFILTRATION]
CM-50 61 0 2         CURVE_NUMBER 
CM-51 61 0 2         CURVE_NUMBER 
CM-52 61 0 2         CURVE_NUMBER 
CM-53 61 0 2         CURVE_NUMBER 
CM-54 61 0 2         CURVE_NUMBER 
CM-55 61 0 2         CURVE_NUMBER 
CM-56 61 0 2         CURVE_NUMBER 
CM-57 61 0 2         CURVE_NUMBER 
CM-58 61 0 2         CURVE_NUMBER 
CM-59 61 0 2         CURVE_NUMBER 
CM-61 61 0 2         CURVE_NUMBER 
CM-62 61 0 2         CURVE_NUMBER 







[JUNCTIONS]
;;                     Invert     Max.       Init.      Surcharge  Ponded
;;Name             Elev.      Depth      Depth      Depth      Area
;;------------------------------------------------------------------------
MH-956 98.5 1.60000000000001 0 0 0 0 
MH-957 98.3 1.7 0 0 0 0 
MH-958 98.2 1.7 0 0 0 0 
MH-959 98 2.00000000000001 0 0 0 0 
CB-82 99 0.999999999999996 0 0.1 0 0 
CB-82_Surface 100 0 0 0 500 0 
CB-82_Surface_Loading 100.304800000001 0 0 0 0 0 
CB-83 98.9 0.999999999999996 0 0.1 0 0 
CB-83_Surface 99.9 0 0 0 500 0 
CB-84 98.8 0.999999999999996 0 0.1 0 0 
CB-84_Surface 99.8 0 0 0 500 0 
CB-85 98.9 0.999999999999996 0 0.1 0 0 
CB-85_Surface 99.9 0 0 0 500 0 
CB-85_Surface_Loading 100.204800000001 0 0 0 0 0 
CB-86 99 0.999999999999996 0 0.1 0 0 
CB-86_Surface 100 0 0 0 500 0 
CB-86_Surface_Loading 100.304800000001 0 0 0 0 0 
CB-87 98.9 0.999999999999996 0 0.1 0 0 
CB-87_Surface 99.9 0 0 0 500 0 
CB-88 98.8 0.999999999999996 0 0.1 0 0 
CB-88_Surface 99.8 0 0 0 500 0 
CB-89 98.9 0.999999999999996 0 0.1 0 0 
CB-89_Surface 99.9 0 0 0 500 0 
CB-89_Surface_Loading 100.204800000001 0 0 0 0 0 

[OUTFALLS]
;;                 Invert     Outfall      Stage/Table
;;Name             Elev.      Type         Time Series     Route To
;;------------------------------------------------------------------------
O-23 97.96 FREE  NO  



[CONDUITS]
;;          Inlet     Outlet             Manning   Inlet     Outlet   Init   Max.
;;Name      Node      Node      Length   N         Height    Height   Flow   Flow    
;;------------------------------------------------------------------------------------------------------------
GU-194 CB-82_Surface CB-83_Surface 44.4237168256016 0.013 0 0 0 0 
GU-195 CB-83_Surface CB-84_Surface 43.683056826341 0.013 0 0 0 0 
GU-196 CB-85_Surface CB-84_Surface 47.4981174991284 0.013 0 0 0 0 
GU-197 CB-86_Surface CB-87_Surface 42.7895922922885 0.013 0 0 0 0 
GU-198 CB-87_Surface CB-88_Surface 45.4284770394369 0.013 0 0 0 0 
GU-199 CB-89_Surface CB-88_Surface 51.5247934933232 0.013 0 0 0 0 
CB-82_Incoming CB-82_Surface_Loading CB-82_Surface 30.4800000001219 0.013 0 0 0 0 
CB-85_Incoming CB-85_Surface_Loading CB-85_Surface 30.4800000001219 0.013 0 0 0 0 
CB-86_Incoming CB-86_Surface_Loading CB-86_Surface 30.4800000001219 0.013 0 0 0 0 
CB-89_Incoming CB-89_Surface_Loading CB-89_Surface 30.4800000001219 0.013 0 0 0 0 
CO-465 MH-956 MH-957 35.5389734608193 0.011 0 0.0999999999999961 0 0 
CO-466 MH-957 MH-958 44.0115054873521 0.012 0 0 0 0 
CO-467 MH-958 MH-959 51.5182164192674 0.012 0 0.0999999999999961 0 0 
CO-468 MH-959 O-23 22.3820479559163 0.012 0 0 0 0 
CO-469 CB-82 MH-956 36.8748943512739 0.011 0 0 0 0 
CO-470 CB-86 MH-956 22.7927962746632 0.011 0 0 0 0 
CO-471 CB-83 MH-957 35.0893958526543 0.011 0 0 0 0 
CO-472 CB-87 MH-957 20.4718412916994 0.011 0 0 0 0 
CO-473 CB-84 MH-958 35.9740719652775 0.011 0 0 0 0 
CO-474 CB-88 MH-958 19.5972962586724 0.011 0 0 0 0 
CO-475 CB-85 MH-959 40.4388932010923 0.011 0 0 0 0 
CO-476 CB-89 MH-959 20.7608281236773 0.011 0 0 0 0 





[XSECTIONS]
;;Link             Type         Geom1      Geom2      Geom3      Geom4
;;-------------------------------------------------------------------------
GU-194 STREET GU-194_Street 0 0 0 1  
GU-195 STREET GU-195_Street 0 0 0 1  
GU-196 STREET GU-196_Street 0 0 0 1  
GU-197 STREET GU-197_Street 0 0 0 1  
GU-198 STREET GU-198_Street 0 0 0 1  
GU-199 STREET GU-199_Street 0 0 0 1  
CB-82_Incoming STREET CB-82_Incoming_Street 0 0 0 1  
CB-85_Incoming STREET CB-85_Incoming_Street 0 0 0 1  
CB-86_Incoming STREET CB-86_Incoming_Street 0 0 0 1  
CB-89_Incoming STREET CB-89_Incoming_Street 0 0 0 1  
CO-465 CIRCULAR 0.2996 0 0 0 1  
CO-466 CIRCULAR 0.4 0 0 0 1  
CO-467 CIRCULAR 0.4 0 0 0 1  
CO-468 CIRCULAR 0.5 0 0 0 1  
CO-469 CIRCULAR 0.25 0 0 0 1  
CO-470 CIRCULAR 0.25 0 0 0 1  
CO-471 CIRCULAR 0.25 0 0 0 1  
CO-472 CIRCULAR 0.25 0 0 0 1  
CO-473 CIRCULAR 0.25 0 0 0 1  
CO-474 CIRCULAR 0.25 0 0 0 1  
CO-475 CIRCULAR 0.25 0 0 0 1  
CO-476 CIRCULAR 0.25 0 0 0 1  

[STREETS]
GU-194_Street 5 0.1 2 0.013 0 0 1 0 0 0 
GU-195_Street 5 0.1 2 0.013 0 0 1 0 0 0 
GU-196_Street 5 0.1 2 0.013 0 0 1 0 0 0 
GU-197_Street 5 0.1 2 0.013 0 0 1 0 0 0 
GU-198_Street 5 0.1 2 0.013 0 0 1 0 0 0 
GU-199_Street 5 0.1 2 0.013 0 0 1 0 0 0 
CB-82_Incoming_Street 5 0.1 2 0.013 0 0 1 0 0 0 
CB-85_Incoming_Street 5 0.1 2 0.013 0 0 1 0 0 0 
CB-86_Incoming_Street 5 0.1 2 0.013 0 0 1 0 0 0 
CB-89_Incoming_Street 5 0.1 2 0.013 0 0 1 0 0 0 

[INLETS]
Side_Entry CURB 0.457 0.1 HORIZONTAL 
Side_Entry_Sag CURB 0.914 0.1 HORIZONTAL 

[INLET_USAGE]
;;Conduit        Inlet            Node             Number    %Clogged  Qmax      aLocal    wLocal    Placement
;;-------------- ---------------- ---------------- --------- --------- --------- --------- --------- --------- ---------
GU-194 Side_Entry CB-83 1 0 0 0 0 ON_GRADE 
GU-195 Side_Entry_Sag CB-84 1 0 0 0 0 ON_SAG 
GU-197 Side_Entry CB-87 1 0 0 0 0 ON_GRADE 
GU-198 Side_Entry_Sag CB-88 1 0 0 0 0 ON_SAG 
CB-82_Incoming Side_Entry CB-82 1 0 0 0 0 ON_GRADE 
CB-85_Incoming Side_Entry CB-85 1 0 0 0 0 ON_GRADE 
CB-86_Incoming Side_Entry CB-86 1 0 0 0 0 ON_GRADE 
CB-89_Incoming Side_Entry CB-89 1 0 0 0 0 ON_GRADE 


[LOSSES]
;;Link             Inlet      Outlet     Average    Flap Gate   SeepRate
;;----------------------------------------------------------------------
CO-465 0 0 0 NO 0 
CO-466 0 0 0 NO 0 
CO-467 0 0 0 NO 0 
CO-468 0 0 0 NO 0 
CO-469 0 0 0 NO 0 
CO-470 0 0 0 NO 0 
CO-471 0 0 0 NO 0 
CO-472 0 0 0 NO 0 
CO-473 0 0 0 NO 0 
CO-474 0 0 0 NO 0 
CO-475 0 0 0 NO 0 
CO-476 0 0 0 NO 0 

[POLLUTANTS]
Pollutants_-_1 MG/L 0 0 0 0 NO * 0 0 









[TIMESERIES]
;;Name             Date       Time       Value     
;;-------------------------------------------------
10-Yr_TI-2024-143-10_Yr_15_min-10yr_TS            00:00:00 0 
10-Yr_TI-2024-143-10_Yr_15_min-10yr_TS            00:01:00 24.22 
10-Yr_TI-2024-143-10_Yr_15_min-10yr_TS            00:02:00 29.2 
10-Yr_TI-2024-143-10_Yr_15_min-10yr_TS            00:03:00 35.87 
10-Yr_TI-2024-143-10_Yr_15_min-10yr_TS            00:04:00 45.33 
10-Yr_TI-2024-143-10_Yr_15_min-10yr_TS            00:05:00 59.53 
10-Yr_TI-2024-143-10_Yr_15_min-10yr_TS            00:06:00 83.76 
10-Yr_TI-2024-143-10_Yr_15_min-10yr_TS            00:07:00 140.52 
10-Yr_TI-2024-143-10_Yr_15_min-10yr_TS            00:08:00 369.26 
10-Yr_TI-2024-143-10_Yr_15_min-10yr_TS            00:09:00 140.52 
10-Yr_TI-2024-143-10_Yr_15_min-10yr_TS            00:10:00 83.76 
10-Yr_TI-2024-143-10_Yr_15_min-10yr_TS            00:11:00 59.53 
10-Yr_TI-2024-143-10_Yr_15_min-10yr_TS            00:12:00 45.33 
10-Yr_TI-2024-143-10_Yr_15_min-10yr_TS            00:13:00 35.87 
10-Yr_TI-2024-143-10_Yr_15_min-10yr_TS            00:14:00 29.2 
10-Yr_TI-2024-143-10_Yr_15_min-10yr_TS            00:15:00 24.22 
10-Yr_TI-2024-143-10_Yr_30_min-10yr_TS            00:00:00 0 
10-Yr_TI-2024-143-10_Yr_30_min-10yr_TS            00:01:00 15.75 
10-Yr_TI-2024-143-10_Yr_30_min-10yr_TS            00:02:00 17.21 
10-Yr_TI-2024-143-10_Yr_30_min-10yr_TS            00:03:00 18.88 
10-Yr_TI-2024-143-10_Yr_30_min-10yr_TS            00:04:00 20.86 
10-Yr_TI-2024-143-10_Yr_30_min-10yr_TS            00:05:00 23.1 
10-Yr_TI-2024-143-10_Yr_30_min-10yr_TS            00:06:00 25.72 
10-Yr_TI-2024-143-10_Yr_30_min-10yr_TS            00:07:00 28.95 
10-Yr_TI-2024-143-10_Yr_30_min-10yr_TS            00:08:00 32.75 
10-Yr_TI-2024-143-10_Yr_30_min-10yr_TS            00:09:00 37.44 
10-Yr_TI-2024-143-10_Yr_30_min-10yr_TS            00:10:00 43.59 
10-Yr_TI-2024-143-10_Yr_30_min-10yr_TS            00:11:00 51.51 
10-Yr_TI-2024-143-10_Yr_30_min-10yr_TS            00:12:00 62.5 
10-Yr_TI-2024-143-10_Yr_30_min-10yr_TS            00:13:00 79.94 
10-Yr_TI-2024-143-10_Yr_30_min-10yr_TS            00:14:00 111.32 
10-Yr_TI-2024-143-10_Yr_30_min-10yr_TS            00:15:00 251.29 
10-Yr_TI-2024-143-10_Yr_30_min-10yr_TS            00:16:00 251.29 
10-Yr_TI-2024-143-10_Yr_30_min-10yr_TS            00:17:00 111.32 
10-Yr_TI-2024-143-10_Yr_30_min-10yr_TS            00:18:00 79.94 
10-Yr_TI-2024-143-10_Yr_30_min-10yr_TS            00:19:00 62.5 
10-Yr_TI-2024-143-10_Yr_30_min-10yr_TS            00:20:00 51.51 
10-Yr_TI-2024-143-10_Yr_30_min-10yr_TS            00:21:00 43.59 
10-Yr_TI-2024-143-10_Yr_30_min-10yr_TS            00:22:00 37.44 
10-Yr_TI-2024-143-10_Yr_30_min-10yr_TS            00:23:00 32.75 
10-Yr_TI-2024-143-10_Yr_30_min-10yr_TS            00:24:00 28.95 
10-Yr_TI-2024-143-10_Yr_30_min-10yr_TS            00:25:00 25.72 
10-Yr_TI-2024-143-10_Yr_30_min-10yr_TS            00:26:00 23.1 
10-Yr_TI-2024-143-10_Yr_30_min-10yr_TS            00:27:00 20.86 
10-Yr_TI-2024-143-10_Yr_30_min-10yr_TS            00:28:00 18.88 
10-Yr_TI-2024-143-10_Yr_30_min-10yr_TS            00:29:00 17.21 
10-Yr_TI-2024-143-10_Yr_30_min-10yr_TS            00:30:00 15.75 
10-Yr_TI-2024-143-10_Yr_45_min-10yr_TS            00:00:00 0 
10-Yr_TI-2024-143-10_Yr_45_min-10yr_TS            00:01:00 12.15 
10-Yr_TI-2024-143-10_Yr_45_min-10yr_TS            00:02:00 12.88 
10-Yr_TI-2024-143-10_Yr_45_min-10yr_TS            00:03:00 13.67 
10-Yr_TI-2024-143-10_Yr_45_min-10yr_TS            00:04:00 14.54 
10-Yr_TI-2024-143-10_Yr_45_min-10yr_TS            00:05:00 15.52 
10-Yr_TI-2024-143-10_Yr_45_min-10yr_TS            00:06:00 16.59 
10-Yr_TI-2024-143-10_Yr_45_min-10yr_TS            00:07:00 17.76 
10-Yr_TI-2024-143-10_Yr_45_min-10yr_TS            00:08:00 19.05 
10-Yr_TI-2024-143-10_Yr_45_min-10yr_TS            00:09:00 20.5 
10-Yr_TI-2024-143-10_Yr_45_min-10yr_TS            00:10:00 22.2 
10-Yr_TI-2024-143-10_Yr_45_min-10yr_TS            00:11:00 24.05 
10-Yr_TI-2024-143-10_Yr_45_min-10yr_TS            00:12:00 26.17 
10-Yr_TI-2024-143-10_Yr_45_min-10yr_TS            00:13:00 28.6 
10-Yr_TI-2024-143-10_Yr_45_min-10yr_TS            00:14:00 31.52 
10-Yr_TI-2024-143-10_Yr_45_min-10yr_TS            00:15:00 34.99 
10-Yr_TI-2024-143-10_Yr_45_min-10yr_TS            00:16:00 39.09 
10-Yr_TI-2024-143-10_Yr_45_min-10yr_TS            00:17:00 44.15 
10-Yr_TI-2024-143-10_Yr_45_min-10yr_TS            00:18:00 50.58 
10-Yr_TI-2024-143-10_Yr_45_min-10yr_TS            00:19:00 59.64 
10-Yr_TI-2024-143-10_Yr_45_min-10yr_TS            00:20:00 72.21 
10-Yr_TI-2024-143-10_Yr_45_min-10yr_TS            00:21:00 92.64 
10-Yr_TI-2024-143-10_Yr_45_min-10yr_TS            00:22:00 137.59 
10-Yr_TI-2024-143-10_Yr_45_min-10yr_TS            00:23:00 314.75 
10-Yr_TI-2024-143-10_Yr_45_min-10yr_TS            00:24:00 137.59 
10-Yr_TI-2024-143-10_Yr_45_min-10yr_TS            00:25:00 92.64 
10-Yr_TI-2024-143-10_Yr_45_min-10yr_TS            00:26:00 72.21 
10-Yr_TI-2024-143-10_Yr_45_min-10yr_TS            00:27:00 59.64 
10-Yr_TI-2024-143-10_Yr_45_min-10yr_TS            00:28:00 50.58 
10-Yr_TI-2024-143-10_Yr_45_min-10yr_TS            00:29:00 44.15 
10-Yr_TI-2024-143-10_Yr_45_min-10yr_TS            00:30:00 39.09 
10-Yr_TI-2024-143-10_Yr_45_min-10yr_TS            00:31:00 34.99 
10-Yr_TI-2024-143-10_Yr_45_min-10yr_TS            00:32:00 31.52 
10-Yr_TI-2024-143-10_Yr_45_min-10yr_TS            00:33:00 28.6 
10-Yr_TI-2024-143-10_Yr_45_min-10yr_TS            00:34:00 26.17 
10-Yr_TI-2024-143-10_Yr_45_min-10yr_TS            00:35:00 24.05 
10-Yr_TI-2024-143-10_Yr_45_min-10yr_TS            00:36:00 22.2 
10-Yr_TI-2024-143-10_Yr_45_min-10yr_TS            00:37:00 20.5 
10-Yr_TI-2024-143-10_Yr_45_min-10yr_TS            00:38:00 19.05 
10-Yr_TI-2024-143-10_Yr_45_min-10yr_TS            00:39:00 17.76 
10-Yr_TI-2024-143-10_Yr_45_min-10yr_TS            00:40:00 16.59 
10-Yr_TI-2024-143-10_Yr_45_min-10yr_TS            00:41:00 15.52 
10-Yr_TI-2024-143-10_Yr_45_min-10yr_TS            00:42:00 14.54 
10-Yr_TI-2024-143-10_Yr_45_min-10yr_TS            00:43:00 13.67 
10-Yr_TI-2024-143-10_Yr_45_min-10yr_TS            00:44:00 12.88 
10-Yr_TI-2024-143-10_Yr_45_min-10yr_TS            00:45:00 12.15 
10-Yr_TI-2024-143-10_Yr_60_min-10yr_TS            00:00:00 0 
10-Yr_TI-2024-143-10_Yr_60_min-10yr_TS            00:01:00 9.64 
10-Yr_TI-2024-143-10_Yr_60_min-10yr_TS            00:02:00 10.06 
10-Yr_TI-2024-143-10_Yr_60_min-10yr_TS            00:03:00 10.5 
10-Yr_TI-2024-143-10_Yr_60_min-10yr_TS            00:04:00 11.03 
10-Yr_TI-2024-143-10_Yr_60_min-10yr_TS            00:05:00 11.54 
10-Yr_TI-2024-143-10_Yr_60_min-10yr_TS            00:06:00 12.08 
10-Yr_TI-2024-143-10_Yr_60_min-10yr_TS            00:07:00 12.73 
10-Yr_TI-2024-143-10_Yr_60_min-10yr_TS            00:08:00 13.36 
10-Yr_TI-2024-143-10_Yr_60_min-10yr_TS            00:09:00 14.03 
10-Yr_TI-2024-143-10_Yr_60_min-10yr_TS            00:10:00 14.86 
10-Yr_TI-2024-143-10_Yr_60_min-10yr_TS            00:11:00 15.66 
10-Yr_TI-2024-143-10_Yr_60_min-10yr_TS            00:12:00 16.52 
10-Yr_TI-2024-143-10_Yr_60_min-10yr_TS            00:13:00 17.58 
10-Yr_TI-2024-143-10_Yr_60_min-10yr_TS            00:14:00 18.63 
10-Yr_TI-2024-143-10_Yr_60_min-10yr_TS            00:15:00 19.76 
10-Yr_TI-2024-143-10_Yr_60_min-10yr_TS            00:16:00 21.2 
10-Yr_TI-2024-143-10_Yr_60_min-10yr_TS            00:17:00 22.62 
10-Yr_TI-2024-143-10_Yr_60_min-10yr_TS            00:18:00 24.2 
10-Yr_TI-2024-143-10_Yr_60_min-10yr_TS            00:19:00 26.22 
10-Yr_TI-2024-143-10_Yr_60_min-10yr_TS            00:20:00 28.3 
10-Yr_TI-2024-143-10_Yr_60_min-10yr_TS            00:21:00 30.65 
10-Yr_TI-2024-143-10_Yr_60_min-10yr_TS            00:22:00 33.77 
10-Yr_TI-2024-143-10_Yr_60_min-10yr_TS            00:23:00 37.1 
10-Yr_TI-2024-143-10_Yr_60_min-10yr_TS            00:24:00 41.07 
10-Yr_TI-2024-143-10_Yr_60_min-10yr_TS            00:25:00 46.7 
10-Yr_TI-2024-143-10_Yr_60_min-10yr_TS            00:26:00 53.28 
10-Yr_TI-2024-143-10_Yr_60_min-10yr_TS            00:27:00 62.04 
10-Yr_TI-2024-143-10_Yr_60_min-10yr_TS            00:28:00 77.19 
10-Yr_TI-2024-143-10_Yr_60_min-10yr_TS            00:29:00 103.14 
10-Yr_TI-2024-143-10_Yr_60_min-10yr_TS            00:30:00 211.15 
10-Yr_TI-2024-143-10_Yr_60_min-10yr_TS            00:31:00 211.15 
10-Yr_TI-2024-143-10_Yr_60_min-10yr_TS            00:32:00 103.14 
10-Yr_TI-2024-143-10_Yr_60_min-10yr_TS            00:33:00 77.19 
10-Yr_TI-2024-143-10_Yr_60_min-10yr_TS            00:34:00 62.04 
10-Yr_TI-2024-143-10_Yr_60_min-10yr_TS            00:35:00 53.28 
10-Yr_TI-2024-143-10_Yr_60_min-10yr_TS            00:36:00 46.7 
10-Yr_TI-2024-143-10_Yr_60_min-10yr_TS            00:37:00 41.07 
10-Yr_TI-2024-143-10_Yr_60_min-10yr_TS            00:38:00 37.1 
10-Yr_TI-2024-143-10_Yr_60_min-10yr_TS            00:39:00 33.77 
10-Yr_TI-2024-143-10_Yr_60_min-10yr_TS            00:40:00 30.65 
10-Yr_TI-2024-143-10_Yr_60_min-10yr_TS            00:41:00 28.3 
10-Yr_TI-2024-143-10_Yr_60_min-10yr_TS            00:42:00 26.22 
10-Yr_TI-2024-143-10_Yr_60_min-10yr_TS            00:43:00 24.2 
10-Yr_TI-2024-143-10_Yr_60_min-10yr_TS            00:44:00 22.62 
10-Yr_TI-2024-143-10_Yr_60_min-10yr_TS            00:45:00 21.2 
10-Yr_TI-2024-143-10_Yr_60_min-10yr_TS            00:46:00 19.76 
10-Yr_TI-2024-143-10_Yr_60_min-10yr_TS            00:47:00 18.63 
10-Yr_TI-2024-143-10_Yr_60_min-10yr_TS            00:48:00 17.58 
10-Yr_TI-2024-143-10_Yr_60_min-10yr_TS            00:49:00 16.52 
10-Yr_TI-2024-143-10_Yr_60_min-10yr_TS            00:50:00 15.66 
10-Yr_TI-2024-143-10_Yr_60_min-10yr_TS            00:51:00 14.86 
10-Yr_TI-2024-143-10_Yr_60_min-10yr_TS            00:52:00 14.03 
10-Yr_TI-2024-143-10_Yr_60_min-10yr_TS            00:53:00 13.36 
10-Yr_TI-2024-143-10_Yr_60_min-10yr_TS            00:54:00 12.73 
10-Yr_TI-2024-143-10_Yr_60_min-10yr_TS            00:55:00 12.08 
10-Yr_TI-2024-143-10_Yr_60_min-10yr_TS            00:56:00 11.54 
10-Yr_TI-2024-143-10_Yr_60_min-10yr_TS            00:57:00 11.03 
10-Yr_TI-2024-143-10_Yr_60_min-10yr_TS            00:58:00 10.5 
10-Yr_TI-2024-143-10_Yr_60_min-10yr_TS            00:59:00 10.06 
10-Yr_TI-2024-143-10_Yr_60_min-10yr_TS            01:00:00 9.64 
10-Yr_TI-2024-143-10_Yr_90_min-10yr_TS            00:00:00 0 
10-Yr_TI-2024-143-10_Yr_90_min-10yr_TS            00:01:00 7.04 
10-Yr_TI-2024-143-10_Yr_90_min-10yr_TS            00:02:00 7.25 
10-Yr_TI-2024-143-10_Yr_90_min-10yr_TS            00:03:00 7.46 
10-Yr_TI-2024-143-10_Yr_90_min-10yr_TS            00:04:00 7.68 
10-Yr_TI-2024-143-10_Yr_90_min-10yr_TS            00:05:00 7.92 
10-Yr_TI-2024-143-10_Yr_90_min-10yr_TS            00:06:00 8.16 
10-Yr_TI-2024-143-10_Yr_90_min-10yr_TS            00:07:00 8.42 
10-Yr_TI-2024-143-10_Yr_90_min-10yr_TS            00:08:00 8.68 
10-Yr_TI-2024-143-10_Yr_90_min-10yr_TS            00:09:00 8.96 
10-Yr_TI-2024-143-10_Yr_90_min-10yr_TS            00:10:00 9.28 
10-Yr_TI-2024-143-10_Yr_90_min-10yr_TS            00:11:00 9.59 
10-Yr_TI-2024-143-10_Yr_90_min-10yr_TS            00:12:00 9.92 
10-Yr_TI-2024-143-10_Yr_90_min-10yr_TS            00:13:00 10.26 
10-Yr_TI-2024-143-10_Yr_90_min-10yr_TS            00:14:00 10.62 
10-Yr_TI-2024-143-10_Yr_90_min-10yr_TS            00:15:00 11 
10-Yr_TI-2024-143-10_Yr_90_min-10yr_TS            00:16:00 11.4 
10-Yr_TI-2024-143-10_Yr_90_min-10yr_TS            00:17:00 11.83 
10-Yr_TI-2024-143-10_Yr_90_min-10yr_TS            00:18:00 12.28 
10-Yr_TI-2024-143-10_Yr_90_min-10yr_TS            00:19:00 12.8 
10-Yr_TI-2024-143-10_Yr_90_min-10yr_TS            00:20:00 13.31 
10-Yr_TI-2024-143-10_Yr_90_min-10yr_TS            00:21:00 13.85 
10-Yr_TI-2024-143-10_Yr_90_min-10yr_TS            00:22:00 14.43 
10-Yr_TI-2024-143-10_Yr_90_min-10yr_TS            00:23:00 15.06 
10-Yr_TI-2024-143-10_Yr_90_min-10yr_TS            00:24:00 15.72 
10-Yr_TI-2024-143-10_Yr_90_min-10yr_TS            00:25:00 16.44 
10-Yr_TI-2024-143-10_Yr_90_min-10yr_TS            00:26:00 17.21 
10-Yr_TI-2024-143-10_Yr_90_min-10yr_TS            00:27:00 18.04 
10-Yr_TI-2024-143-10_Yr_90_min-10yr_TS            00:28:00 19.03 
10-Yr_TI-2024-143-10_Yr_90_min-10yr_TS            00:29:00 20.03 
10-Yr_TI-2024-143-10_Yr_90_min-10yr_TS            00:30:00 21.12 
10-Yr_TI-2024-143-10_Yr_90_min-10yr_TS            00:31:00 22.32 
10-Yr_TI-2024-143-10_Yr_90_min-10yr_TS            00:32:00 23.65 
10-Yr_TI-2024-143-10_Yr_90_min-10yr_TS            00:33:00 25.13 
10-Yr_TI-2024-143-10_Yr_90_min-10yr_TS            00:34:00 26.79 
10-Yr_TI-2024-143-10_Yr_90_min-10yr_TS            00:35:00 28.67 
10-Yr_TI-2024-143-10_Yr_90_min-10yr_TS            00:36:00 30.82 
10-Yr_TI-2024-143-10_Yr_90_min-10yr_TS            00:37:00 33.57 
10-Yr_TI-2024-143-10_Yr_90_min-10yr_TS            00:38:00 36.58 
10-Yr_TI-2024-143-10_Yr_90_min-10yr_TS            00:39:00 40.21 
10-Yr_TI-2024-143-10_Yr_90_min-10yr_TS            00:40:00 44.72 
10-Yr_TI-2024-143-10_Yr_90_min-10yr_TS            00:41:00 50.52 
10-Yr_TI-2024-143-10_Yr_90_min-10yr_TS            00:42:00 58.44 
10-Yr_TI-2024-143-10_Yr_90_min-10yr_TS            00:43:00 70.27 
10-Yr_TI-2024-143-10_Yr_90_min-10yr_TS            00:44:00 91.54 
10-Yr_TI-2024-143-10_Yr_90_min-10yr_TS            00:45:00 185.08 
10-Yr_TI-2024-143-10_Yr_90_min-10yr_TS            00:46:00 185.08 
10-Yr_TI-2024-143-10_Yr_90_min-10yr_TS            00:47:00 91.54 
10-Yr_TI-2024-143-10_Yr_90_min-10yr_TS            00:48:00 70.27 
10-Yr_TI-2024-143-10_Yr_90_min-10yr_TS            00:49:00 58.44 
10-Yr_TI-2024-143-10_Yr_90_min-10yr_TS            00:50:00 50.52 
10-Yr_TI-2024-143-10_Yr_90_min-10yr_TS            00:51:00 44.72 
10-Yr_TI-2024-143-10_Yr_90_min-10yr_TS            00:52:00 40.21 
10-Yr_TI-2024-143-10_Yr_90_min-10yr_TS            00:53:00 36.58 
10-Yr_TI-2024-143-10_Yr_90_min-10yr_TS            00:54:00 33.57 
10-Yr_TI-2024-143-10_Yr_90_min-10yr_TS            00:55:00 30.82 
10-Yr_TI-2024-143-10_Yr_90_min-10yr_TS            00:56:00 28.67 
10-Yr_TI-2024-143-10_Yr_90_min-10yr_TS            00:57:00 26.79 
10-Yr_TI-2024-143-10_Yr_90_min-10yr_TS            00:58:00 25.13 
10-Yr_TI-2024-143-10_Yr_90_min-10yr_TS            00:59:00 23.65 
10-Yr_TI-2024-143-10_Yr_90_min-10yr_TS            01:00:00 22.32 
10-Yr_TI-2024-143-10_Yr_90_min-10yr_TS            01:01:00 21.12 
10-Yr_TI-2024-143-10_Yr_90_min-10yr_TS            01:02:00 20.03 
10-Yr_TI-2024-143-10_Yr_90_min-10yr_TS            01:03:00 19.03 
10-Yr_TI-2024-143-10_Yr_90_min-10yr_TS            01:04:00 18.04 
10-Yr_TI-2024-143-10_Yr_90_min-10yr_TS            01:05:00 17.21 
10-Yr_TI-2024-143-10_Yr_90_min-10yr_TS            01:06:00 16.44 
10-Yr_TI-2024-143-10_Yr_90_min-10yr_TS            01:07:00 15.72 
10-Yr_TI-2024-143-10_Yr_90_min-10yr_TS            01:08:00 15.06 
10-Yr_TI-2024-143-10_Yr_90_min-10yr_TS            01:09:00 14.43 
10-Yr_TI-2024-143-10_Yr_90_min-10yr_TS            01:10:00 13.85 
10-Yr_TI-2024-143-10_Yr_90_min-10yr_TS            01:11:00 13.31 
10-Yr_TI-2024-143-10_Yr_90_min-10yr_TS            01:12:00 12.8 
10-Yr_TI-2024-143-10_Yr_90_min-10yr_TS            01:13:00 12.28 
10-Yr_TI-2024-143-10_Yr_90_min-10yr_TS            01:14:00 11.83 
10-Yr_TI-2024-143-10_Yr_90_min-10yr_TS            01:15:00 11.4 
10-Yr_TI-2024-143-10_Yr_90_min-10yr_TS            01:16:00 11 
10-Yr_TI-2024-143-10_Yr_90_min-10yr_TS            01:17:00 10.62 
10-Yr_TI-2024-143-10_Yr_90_min-10yr_TS            01:18:00 10.26 
10-Yr_TI-2024-143-10_Yr_90_min-10yr_TS            01:19:00 9.92 
10-Yr_TI-2024-143-10_Yr_90_min-10yr_TS            01:20:00 9.59 
10-Yr_TI-2024-143-10_Yr_90_min-10yr_TS            01:21:00 9.28 
10-Yr_TI-2024-143-10_Yr_90_min-10yr_TS            01:22:00 8.96 
10-Yr_TI-2024-143-10_Yr_90_min-10yr_TS            01:23:00 8.68 
10-Yr_TI-2024-143-10_Yr_90_min-10yr_TS            01:24:00 8.42 
10-Yr_TI-2024-143-10_Yr_90_min-10yr_TS            01:25:00 8.16 
10-Yr_TI-2024-143-10_Yr_90_min-10yr_TS            01:26:00 7.92 
10-Yr_TI-2024-143-10_Yr_90_min-10yr_TS            01:27:00 7.68 
10-Yr_TI-2024-143-10_Yr_90_min-10yr_TS            01:28:00 7.46 
10-Yr_TI-2024-143-10_Yr_90_min-10yr_TS            01:29:00 7.25 
10-Yr_TI-2024-143-10_Yr_90_min-10yr_TS            01:30:00 7.04 
10-Yr_TI-2024-143-10_Yr_120_min-10yr_TS            00:00:00 0 
10-Yr_TI-2024-143-10_Yr_120_min-10yr_TS            00:01:00 5.73 
10-Yr_TI-2024-143-10_Yr_120_min-10yr_TS            00:02:00 5.86 
10-Yr_TI-2024-143-10_Yr_120_min-10yr_TS            00:03:00 5.98 
10-Yr_TI-2024-143-10_Yr_120_min-10yr_TS            00:04:00 6.11 
10-Yr_TI-2024-143-10_Yr_120_min-10yr_TS            00:05:00 6.24 
10-Yr_TI-2024-143-10_Yr_120_min-10yr_TS            00:06:00 6.38 
10-Yr_TI-2024-143-10_Yr_120_min-10yr_TS            00:07:00 6.56 
10-Yr_TI-2024-143-10_Yr_120_min-10yr_TS            00:08:00 6.7 
10-Yr_TI-2024-143-10_Yr_120_min-10yr_TS            00:09:00 6.86 
10-Yr_TI-2024-143-10_Yr_120_min-10yr_TS            00:10:00 7.01 
10-Yr_TI-2024-143-10_Yr_120_min-10yr_TS            00:11:00 7.18 
10-Yr_TI-2024-143-10_Yr_120_min-10yr_TS            00:12:00 7.34 
10-Yr_TI-2024-143-10_Yr_120_min-10yr_TS            00:13:00 7.56 
10-Yr_TI-2024-143-10_Yr_120_min-10yr_TS            00:14:00 7.74 
10-Yr_TI-2024-143-10_Yr_120_min-10yr_TS            00:15:00 7.93 
10-Yr_TI-2024-143-10_Yr_120_min-10yr_TS            00:16:00 8.13 
10-Yr_TI-2024-143-10_Yr_120_min-10yr_TS            00:17:00 8.33 
10-Yr_TI-2024-143-10_Yr_120_min-10yr_TS            00:18:00 8.54 
10-Yr_TI-2024-143-10_Yr_120_min-10yr_TS            00:19:00 8.82 
10-Yr_TI-2024-143-10_Yr_120_min-10yr_TS            00:20:00 9.05 
10-Yr_TI-2024-143-10_Yr_120_min-10yr_TS            00:21:00 9.29 
10-Yr_TI-2024-143-10_Yr_120_min-10yr_TS            00:22:00 9.54 
10-Yr_TI-2024-143-10_Yr_120_min-10yr_TS            00:23:00 9.79 
10-Yr_TI-2024-143-10_Yr_120_min-10yr_TS            00:24:00 10.06 
10-Yr_TI-2024-143-10_Yr_120_min-10yr_TS            00:25:00 10.42 
10-Yr_TI-2024-143-10_Yr_120_min-10yr_TS            00:26:00 10.72 
10-Yr_TI-2024-143-10_Yr_120_min-10yr_TS            00:27:00 11.03 
10-Yr_TI-2024-143-10_Yr_120_min-10yr_TS            00:28:00 11.36 
10-Yr_TI-2024-143-10_Yr_120_min-10yr_TS            00:29:00 11.7 
10-Yr_TI-2024-143-10_Yr_120_min-10yr_TS            00:30:00 12.06 
10-Yr_TI-2024-143-10_Yr_120_min-10yr_TS            00:31:00 12.54 
10-Yr_TI-2024-143-10_Yr_120_min-10yr_TS            00:32:00 12.95 
10-Yr_TI-2024-143-10_Yr_120_min-10yr_TS            00:33:00 13.37 
10-Yr_TI-2024-143-10_Yr_120_min-10yr_TS            00:34:00 13.82 
10-Yr_TI-2024-143-10_Yr_120_min-10yr_TS            00:35:00 14.3 
10-Yr_TI-2024-143-10_Yr_120_min-10yr_TS            00:36:00 14.8 
10-Yr_TI-2024-143-10_Yr_120_min-10yr_TS            00:37:00 15.47 
10-Yr_TI-2024-143-10_Yr_120_min-10yr_TS            00:38:00 16.06 
10-Yr_TI-2024-143-10_Yr_120_min-10yr_TS            00:39:00 16.68 
10-Yr_TI-2024-143-10_Yr_120_min-10yr_TS            00:40:00 17.34 
10-Yr_TI-2024-143-10_Yr_120_min-10yr_TS            00:41:00 18.05 
10-Yr_TI-2024-143-10_Yr_120_min-10yr_TS            00:42:00 18.8 
10-Yr_TI-2024-143-10_Yr_120_min-10yr_TS            00:43:00 19.84 
10-Yr_TI-2024-143-10_Yr_120_min-10yr_TS            00:44:00 20.76 
10-Yr_TI-2024-143-10_Yr_120_min-10yr_TS            00:45:00 21.76 
10-Yr_TI-2024-143-10_Yr_120_min-10yr_TS            00:46:00 22.85 
10-Yr_TI-2024-143-10_Yr_120_min-10yr_TS            00:47:00 24.03 
10-Yr_TI-2024-143-10_Yr_120_min-10yr_TS            00:48:00 25.34 
10-Yr_TI-2024-143-10_Yr_120_min-10yr_TS            00:49:00 27.2 
10-Yr_TI-2024-143-10_Yr_120_min-10yr_TS            00:50:00 28.94 