[TITLE]
;;Project Title/Notes

[OPTIONS]
;;Option             Value
FLOW_UNITS           CFS
INFILTRATION         GREEN_AMPT
FLOW_ROUTING         DYNWAVE
LINK_OFFSETS         DEPTH
MIN_SLOPE            0
ALLOW_PONDING        NO
SKIP_STEADY_STATE    NO

START_DATE           05/01/2005
START_TIME           00:00:00
REPORT_START_DATE    05/01/2005
REPORT_START_TIME    00:00:00
END_DATE             05/20/2005
END_TIME             00:00:00
SWEEP_START          01/01
SWEEP_END            12/31
DRY_DAYS             0
REPORT_STEP          00:15:00
WET_STEP             00:05:00
DRY_STEP             23:00:00
ROUTING_STEP         0:00:05 

INERTIAL_DAMPING     NONE
NORMAL_FLOW_LIMITED  BOTH
FORCE_MAIN_EQUATION  H-W
VARIABLE_STEP        0.75
LENGTHENING_STEP     5
MIN_SURFAREA         5
MAX_TRIALS           8
HEAD_TOLERANCE       0.005
SYS_FLOW_TOL         5
LAT_FLOW_TOL         5
MINIMUM_STEP         0
THREADS              1

[EVAPORATION]
;;Data Source    Parameters
;;-------------- ----------------
MONTHLY          1.03E-02 0.0125 2.74E-02 0.06   9.52E-02 0.131666667 0.222580645 0.190322581 0.176666667 9.52E-02 4.33E-02 0.012258065
DRY_ONLY         NO

[RAINGAGES]
;;Name           Format    Interval SCF      Source    
;;-------------- --------- ------ ------ ----------
GAGE1            VOLUME    0:05     1        TIMESERIES RainSeries1     
GAGE2            VOLUME    0:05     1        TIMESERIES RainSeries2     
PMA01            INTENSITY 0:15     1.0      TIMESERIES PMA012007       
PMP06            INTENSITY 0:15     1.0      TIMESERIES PMP062007       

[SUBCATCHMENTS]
;;Name           Rain Gage        Outlet           Area     %Imperv  Width    %Slope   CurbLen  SnowPack        
;;-------------- ---------------- ---------------- -------- -------- -------- -------- -------- ----------------
MC-157_1         GAGE2            MC-157           64.7     38.2     181      0.1      0                        
MC-155_1         GAGE2            MC-155           434.79999 39.8     686      0.1      0                        
MC-156_1         GAGE2            MC-156           148.3    46       431      0.1      0                        
MC-158_1         GAGE2            MC-158           548.40002 49.6     1422     0.2      0                        
MC-159_1         GAGE2            MC-159           484.20001 57       488      0.1      0                        
MC-160_1         GAGE2            MC-160           158.89999 45.2     320      0.1      0                        
MC-161_1         GAGE2            MC-161           85.2     38       269      0.1      0                        
MC-164_1         GAGE2            MC-164           165.39999 38.5     429      0.1      0                        
MC-165_1         GAGE2            MC-165           24.3     33.9     126      0.4      0                        
MC-162_1         GAGE2            MC-162           203.2    36.7     388      0.2      0                        
MC-163_1         GAGE2            MC-163           112.8    36.9     328      0.1      0                        
MR-1_1           GAGE2            MR-1             322      41       899      0.03     0                        
MC-169_1         GAGE2            MC-169           57.7     31.6     116      0.1      0                        
MC-167_1         GAGE2            MC-167           347.5    66.7     561      0.1      0                        

[SUBAREAS]
;;Subcatchment   N-Imperv   N-Perv     S-Imperv   S-Perv     PctZero    RouteTo    PctRouted 
;;-------------- ---------- ---------- ---------- ---------- ---------- ---------- ----------
MC-157_1         0.014      0.1        0.14       0.1        25         OUTLET    
MC-155_1         0.014      0.1        0.15       0.1        25         OUTLET    
MC-156_1         0.014      0.1        0.09       0.1        25         OUTLET    
MC-158_1         0.014      0.1        0.08       0.1        25         OUTLET    
MC-159_1         0.014      0.1        0.12       0.1        25         OUTLET    
MC-160_1         0.014      0.1        0.11       0.1        25         OUTLET    
MC-161_1         0.014      0.1        0.1        0.1        25         OUTLET    
MC-164_1         0.014      0.1        0.12       0.1        25         OUTLET    
MC-165_1         0.014      0.1        0.06       0.1        25         OUTLET    
MC-162_1         0.014      0.1        0.07       0.1        25         OUTLET    
MC-163_1         0.014      0.1        0.09       0.1        25         OUTLET    
MR-1_1           0.014      0.03       0.07       0.01       25         OUTLET    
MC-169_1         0.014      0.1        0.11       0.1        25         OUTLET    
MC-167_1         0.014      0.1        0.1        0.1        25         OUTLET    

[INFILTRATION]
;;Subcatchment   Suction    Ksat       IMD       
;;-------------- ---------- ---------- ----------
MC-157_1         5.86       0.225      64.8      
MC-155_1         4.81       0.26       72        
MC-156_1         4.8        0.26       72        
MC-158_1         4.8        0.262      72        
MC-159_1         4.77       0.303      72        
MC-160_1         4.8        0.28       72        
MC-161_1         4.8        0.307      72        
MC-164_1         4.8        0.262      72        
MC-165_1         4.8        0.279      72        
MC-162_1         4.8        0.269      72        
MC-163_1         4.8        0.276      72        
MR-1_1           4.8        0.27       72        
MC-169_1         4.8        0.311      72        
MC-167_1         4.8        0.334      72        

[JUNCTIONS]
;;Name           Elevation  MaxDepth   InitDepth  SurDepth   Aponded   
;;-------------- ---------- ---------- ---------- ---------- ----------
MC-15548         826.36     13.64      0          0          0         
MC-15562         826.46     7.11       0          0          0         
MC-15562b        824.55     6          0          0          0         
MC-15565t        824.3      15.7       0          0          0         
MC-15566t        824.32     12.28      0          0          0         
MC-155WYE        821.8      14.45      0          0          0         
MC-156MH1        823.7      8.6        0          0          0         
MC-156MH2        823.4      12.93      0          0          0         
MC-157MH1        828.57     10.73      0          0          0         
MC-157MH2        828.78     20.52      0          0          0         
MC-157MH3        827.3      18         0          0          0         
MC-158out        818.09     6.91       0.91       0          0         
MC-159FN1        814.9      6.1        0.59       0          0         
MC-160FN1        814.4      11.6       0          0          0         
MC-162FN1        811.8      5.6        0          0          0         
MC-163FN1        811        4.1        4          0          0         
MC-164           813.59     6.41       0          0          0         
MC-165           816.7      3.3        0          0          0         
MC-166FN1        811.2      3.9        0          0          0         
MC-168           811.7      13.5       0.9        0          0         
MC-168FN2        811.7      13.5       0.9        0          0         
MC-168FN3        812.6      9.9        0          0          0         
MC-168FN4        811.5      11.73      0.3        0          0         
MC-168FN5        811.8      12.2       0          0          0         
MC-168FN6        810.8      11.2       0.4        0          0         
MC-168FN7        811        11.7       0.2        0          0         
MC-169           815        7          0          0          0         
MC-169FN1        811        11.7       0.2        0          0         
MC-169FN2        811.2      8.8        0          0          0         
MC-169FN3        811.2      10.2       0          0          0         
MC-169FN4        810.6      10.2       0.19       0          0         
MC-169FN5        810.6      9.5        0.19       0          0         
MC-169FN6        810        10         0.79       0          0         
MC-169FN7        810        10         0.79       0          0         
MC-169FN8        810.5      9.5        0.29       0          0         
MC-169FN9        810.5      14.5       0.29       0          0         
MR-1             760.3      69.7       0          0          0         
OutletNode       811.5      11.73      0.3        0          0         

[OUTFALLS]
;;Name           Elevation  Type       Stage Data       Gated    Route To        
;;-------------- ---------- ---------- ---------------- -------- ----------------
;  *    Extran outfall nodes I1 - free I2 - gates
MC-158FN1        816.5      FREE                        NO                       

[STORAGE]
;;Name           Elev.    MaxDepth   InitDepth  Shape      Curve Name/Params            N/A      Fevap    Psi      Ksat     IMD     
;;-------------- -------- ---------- ----------- ---------- ---------------------------- -------- --------          -------- --------
;  * JSTORE ZTOP ASTORE   NUMST
MC-158           817.5    18.83      0          TABULAR    MC-158                       0        0       
;  * JSTORE ZTOP ASTORE   NUMST
MC-160           814      26         1.49       TABULAR    MC-160                       0        0       
;  * JSTORE ZTOP ASTORE   NUMST
MC-161           813.8    12.2       0          TABULAR    MC-161                       0        0       
;  * JSTORE ZTOP ASTORE   NUMST
MC-162           808      13.8       0          TABULAR    MC-162                       0        0       
;  * JSTORE ZTOP ASTORE   NUMST
MC-167           809      16         6          TABULAR    MC-167                       0        0       
;  * JSTORE ZTOP ASTORE   NUMST
MC-155           826.7    5.2        0          TABULAR    MC-155                       0        0       
;  * JSTORE ZTOP ASTORE   NUMST
MC-156           820.6    11.7       4          TABULAR    MC-156                       0        0       
;  * JSTORE ZTOP ASTORE   NUMST
MC-157           829.3    10         0          TABULAR    MC-157                       0        0       
;  * JSTORE ZTOP ASTORE   NUMST
MC-159           814.13   15         1.57       TABULAR    MC-159                       0        0       
;  * JSTORE ZTOP ASTORE   NUMST
MC-166           809      11         0          TABULAR    MC-166                       0        0       
;  * JSTORE ZTOP ASTORE   NUMST
MC-163           809      11         0          TABULAR    MC-163                       0        0       
;  * JSTORE ZTOP ASTORE   NUMST
MC-172           806.8    17.75      3.99       TABULAR    MC-172                       0        0       
;  * JSTORE ZTOP ASTORE   NUMST
MC-159Fro        814      36.13      1.7        TABULAR    MC-159Fro                    0        0       
;  * JSTORE ZTOP ASTORE   NUMST
MC-159Out        813.5    36.63      2.2        TABULAR    MC-159Out                    0        0       
;  * JSTORE ZTOP ASTORE   NUMST
MC-160Fro        814      11         0          TABULAR    MC-160Fro                    0        0       

[CONDUITS]
;;Name           From Node        To Node          Length     Roughness  InOffset   OutOffset  InitFlow   MaxFlow   
;;-------------- ---------------- ---------------- ---------- ---------- ---------- ---------- ---------- ----------
MC-169sec5       MC-169FN9        MC-172           484        0.014      0          3.5        0          0         
MC-155SS8        MC-155WYE        MC-156           473        0.013      0          0          0          0         
MC-15715a        MC-157MH3        MC-158           4266       0.013      0          0.5        0          0         
MC-157SS1        MC-157           MC-157MH1        210        0.013      0          0          0          0         
MC-159Ced        MC-159Out        MC-159Fro        200        0.023      0.63       0.13       0          0         
MC-161SS1        MC-161           MC-167           988        0.023      0          5.8        0          0         
MC-164SS1        MC-164           MC-167           273        0.023      0          4          0          0         
MC-165SS1        MC-165           MC-167           300        0.013      0          4.3        0          0         
MC-157SS2        MC-157MH1        MC-157MH2        376        0.013      0          0          0          0         
MC-157SS3        MC-157MH2        MC-157MH3        370        0.013      0          0          0          0         
MC-155SS5        MC-15562b        MC-155WYE        1980       0.013      0          1.5        0          0         
MC-155SS4        MC-15548         MC-15566t        1320       0.013      0          0          0          0         
MC-155SS6        MC-15566t        MC-15565t        660        0.013      0          0          0          0         
MC-155SS7        MC-15565t        MC-155WYE        330        0.013      0          1.5        0          0         
MC-162AC         MC-162FN1        MC-167           82         0.011      0          0          0          0         
MC-163GC         MC-163FN1        MC-167           60         0.011      0          0          0          0         
MC-166NC         MC-166FN1        MC-167           66         0.011      0          0          0          0         
MC-155SS3        MC-15562         MC-15562b        577        0.013      0          0          0          0         
MC-158Chnl       MC-158           MC-158out        275        0.025      1.5        0.91       0          0         
MC-158SS1        MC-158out        MC-160           2205       0.013      0          2.08       0          0         
MC-168sec2       MC-168FN2        MC-168FN3        164        0.014      0          0          0          0         
MC-168sec3       MC-168FN3        MC-168FN4        79         0.014      0          0          0          0         
MC-168sec4       MC-168FN4        MC-168FN5        135        0.014      0          0          0          0         
MC-169sec1       MC-169FN1        MC-169FN2        340        0.014      0          0          0          0         
MC-168sec5       MC-168FN6        MC-168FN7        159        0.014      0          0          0          0         
MC-169sec2       MC-169FN3        MC-169FN4        719        0.014      0          0          0          0         
MC-169SS1        MC-169           MC-169FN1        510        0.023      0          0          0          0         
MC-169sec3       MC-169FN5        MC-169FN6        251        0.014      0          0          0          0         
MC-169sec4       MC-169FN7        MC-169FN8        274        0.014      0          0          0          0         
MC-155Arch       MC-155           MC-15562         330        0.013      0          0          0          0         
64thStC          MC-156           MC-156MH1        44         0.013      3.1        0          0          0         
60RCP            MC-156MH1        MC-156MH2        344        0.013      0          0.63       0          0         
54RCP            MC-156MH1        MC-156MH2        344        0.013      0          0          0          0         
MC-167weir       MC-167           OutletNode       5          0.013      6.1        3.6        0          0         
MC-169Ft2B       MC-169FN4        MC-169FN5        24         0.03       0          0          0          0         
MC-169Ft2T       MC-169FN4        MC-169FN5        24         0.014      4.5        4.5        0          0         
SS360RCP         MC-156MH2        MC-158           919        0.013      0.63       0.47       0          0         
SS354RCP         MC-156MH2        MC-158           919        0.013      0          0.28       0          0         
MC-155C          MC-155           MC-15548         660        0.013      0          0          0          0         
MC-159FRdC       MC-159Fro        MC-159FN1        40         0.023      1.7        0          0          0         
MC-159FRdT       MC-159Fro        MC-159FN1        40         0.014      6          5.1        0          0         
MC-159TrC        MC-159FN1        MC-160           30         0.023      0.61       1.42       0          0         
MC-160TrC        MC-160           MC-160Fro        40         0.023      1.49       0.92       0          0         
MC160CR62C       MC-160Fro        MC-160FN1        175        0.023      0.32       0.7        0          0         
MC160CR62T       MC-160Fro        MC-160FN1        40         0.014      10         9.6        0          0         
MC-160C3         MC-160FN1        MC-161           60         0.023      0          0.7        0          0         
MC-160T3         MC-160FN1        MC-161           40         0.014      10.6       11.2       0          0         
MC-168PFtB       MC-168           MC-168FN2        8          0.014      0          0          0          0         
MC-168PFtT       MC-168           MC-168FN2        8          0.014      5.2        5.2        0          0         
MC-168MPkB       MC-168FN7        MC-169FN1        49         0.014      0          0          0          0         
MC-158MPkT       MC-168FN7        MC-169FN1        49         0.014      7.3        7.3        0          0         
MC-169Ft1B       MC-169FN2        MC-169FN3        6          0.014      0          0          0          0         
MC-169Ft1T       MC-169FN2        MC-169FN3        6          0.014      3          3          0          0         
MC-169Ft3B       MC-169FN6        MC-169FN7        6          0.014      0          0          0          0         
MC-169Ft3T       MC-169FN6        MC-169FN7        6          0.014      4          4          0          0         
MC-169Ft4B       MC-169FN8        MC-169FN9        6          0.014      0          0          0          0         
MC-169Ft4T       MC-169FN8        MC-169FN9        6          0.014      3.5        3.5        0          0         

[ORIFICES]
;;Name           From Node        To Node          Type         Offset     Qcoeff     Gated    CloseTime 
;;-------------- ---------------- ---------------- ------------ ---------- ---------- -------- ----------
MC-159Flapgates  MC-159           MC-159Out        SIDE         0.6        1.0        NO       0         
MC-159weir       MC-159           MC-159Out        SIDE         0.6        0.6        NO       0         

[WEIRS]
;;Name           From Node        To Node          Type         CrestHt    Qcoeff     Gated    EndCon   EndCoeff   Surcharge  RoadWidth  RoadSurf  
;;-------------- ---------------- ---------------- ------------ ---------- ---------- -------- -------- ---------- ---------- ---------- ----------
WEIR10atMC-166-MC-166FN1 MC-166           MC-166FN1        TRANSVERSE   6.1        2.8        NO       0        0          YES       
WEIR13atMC-155-MC-15548 MC-155           MC-15548         TRANSVERSE   17.5       2.8        NO       0        0          YES       
WEIR14atMC-163-MC-163FN1 MC-163           MC-163FN1        TRANSVERSE   6.1        2.8        NO       0        0          YES       
WEIR15atMC-159FN1-MC-160 MC-159FN1        MC-160           TRANSVERSE   3.1        2.8        NO       0        0          YES       
WEIR16atMC-159-MC-159Out MC-159           MC-159Out        TRANSVERSE   5.77       2.8        NO       0        0          YES       
WEIR18atMC-168FN5-MC-168FN6 MC-168FN5        MC-168FN6        TRANSVERSE   0          3          NO       0        0          YES       
WEIR20aMC-160TrT MC-160Fro        MC-160           TRANSVERSE   4          2.8        NO       0        0          YES       
WEIR7atMC-162-MC-162FN1 MC-162           MC-162FN1        TRANSVERSE   8.1        2.8        NO       0        0          YES       
WEIR8atMC-155-MC-15562 MC-155           MC-15562         TRANSVERSE   17.5       2.8        NO       0        0          YES       
WEIR9atMC-156-MC-156MH1 MC-156           MC-156MH1        TRANSVERSE   12.3       2.8        NO       0        0          YES       

[OUTLETS]
;;Name           From Node        To Node          Offset     Type            QTable/Qcoeff    Qexpon     Gated   
;;-------------- ---------------- ---------------- ---------- --------------- ---------------- ---------- --------
MC-158exf        MC-158           MC-158FN1        0          TABULAR/DEPTH   MC-158exf                   NO      
MC-167weirOutlet OutletNode       MC-168FN4        3.6        TABULAR/DEPTH   MC-167weirCurve             NO      

[XSECTIONS]
;;Link           Shape        Geom1            Geom2      Geom3      Geom4      Barrels    Culvert   
;;-------------- ------------ ---------------- ---------- ---------- ---------- ---------- ----------
MC-169sec5       IRREGULAR    123              0          0          0          1                    
MC-155SS8        CIRCULAR     7.5              0          0          0          1                    
MC-15715a        CIRCULAR     2.5              0          0          0          1                    
MC-157SS1        CIRCULAR     2.5              0          0          0          1                    
MC-159Ced        CIRCULAR     3                0          0          0          1                    
MC-161SS1        CIRCULAR     7.25             0          0          0          1                    
MC-164SS1        CIRCULAR     3                0          0          0          1                    
MC-165SS1        CIRCULAR     1.5              0          0          0          1                    
MC-157SS2        CIRCULAR     2.5              0          0          0          1                    
MC-157SS3        CIRCULAR     2.5              0          0          0          1                    
MC-155SS5        CIRCULAR     6                0          0          0          1                    
MC-155SS4        CIRCULAR     4                0          0          0          1                    
MC-155SS6        CIRCULAR     4.5              0          0          0          1                    
MC-155SS7        CIRCULAR     5                0          0          0          1                    
MC-162AC         CIRCULAR     3                0          0          0          1                    
MC-163GC         CIRCULAR     3                0          0          0          1                    
MC-166NC         CIRCULAR     3                0          0          0          1                    
MC-155SS3        CIRCULAR     5.167            0          0          0          1                    
MC-158Chnl       TRAPEZOIDAL  6                6          2          2          1                    
MC-158SS1        CIRCULAR     4                0          0          0          1                    
MC-168sec2       IRREGULAR    236              0          0          0          1                    
MC-168sec3       IRREGULAR    238              0          0          0          1                    
MC-168sec4       IRREGULAR    239              0          0          0          1                    
MC-169sec1       IRREGULAR    240              0          0          0          1                    
MC-168sec5       IRREGULAR    241              0          0          0          1                    
MC-169sec2       IRREGULAR    242              0          0          0          1                    
MC-169SS1        CIRCULAR     3.5              0          0          0          1                    
MC-169sec3       IRREGULAR    243              0          0          0          1                    
MC-169sec4       IRREGULAR    244              0          0          0          1                    
MC-155Arch       CIRCULAR     5.167            0          0          0          1                    
64thStC          CIRCULAR     4.5              0          0          0          1                    
60RCP            CIRCULAR     5                0          0          0          1                    
54RCP            CIRCULAR     4.5              0          0          0          1                    
MC-167weir       IRREGULAR    405              0          0          0          1                    
MC-169Ft2B       RECT_CLOSED  5.7              33         0          0          1                    
MC-169Ft2T       IRREGULAR    406              0          0          0          1                    
SS360RCP         CIRCULAR     5                0          0          0          1                    
SS354RCP         CIRCULAR     4.5              0          0          0          1                    
MC-155C          CIRCULAR     4                0          0          0          1                    
MC-159FRdC       CIRCULAR     3                0          0          0          1                    
MC-159FRdT       IRREGULAR    407              0          0          0          1                    
MC-159TrC        CIRCULAR     2                0          0          0          1                    
MC-160TrC        CIRCULAR     4                0          0          0          1                    
MC160CR62C       CIRCULAR     3.67             0          0          0          1                    
MC160CR62T       IRREGULAR    408              0          0          0          1                    
MC-160C3         CIRCULAR     3.67             0          0          0          1                    
MC-160T3         IRREGULAR    409              0          0          0          1                    
MC-168PFtB       IRREGULAR    423              0          0          0          1                    
MC-168PFtT       IRREGULAR    424              0          0          0          1                    
MC-168MPkB       IRREGULAR    425              0          0          0          1                    
MC-158MPkT       IRREGULAR    426              0          0          0          1                    
MC-169Ft1B       RECT_CLOSED  6                37         0          0          1                    
MC-169Ft1T       IRREGULAR    427              0          0          0          1                    
MC-169Ft3B       IRREGULAR    428              0          0          0          1                    
MC-169Ft3T       IRREGULAR    429              0          0          0          1                    
MC-169Ft4B       IRREGULAR    430              0          0          0          1                    
MC-169Ft4T       IRREGULAR    431              0          0          0          1                    
MC-159Flapgates  CIRCULAR     3                0          0          0
MC-159weir       RECT_CLOSED  15               30         0          0
WEIR10atMC-166-MC-166FN1 RECT_OPEN    9.9              39.5       0          0         
WEIR13atMC-155-MC-15548 RECT_OPEN    15.8             50         0          0         
WEIR14atMC-163-MC-163FN1 RECT_OPEN    9.9              56         0          0         
WEIR15atMC-159FN1-MC-160 RECT_OPEN    7                40         0          0         
WEIR16atMC-159-MC-159Out RECT_OPEN    5.1              41.33      0          0         
WEIR18atMC-168FN5-MC-168FN6 RECT_OPEN    13.2             20         0          0         
WEIR20aMC-160TrT RECT_OPEN    7                40         0          0         
WEIR7atMC-162-MC-162FN1 RECT_OPEN    13.9             56         0          0         
WEIR8atMC-155-MC-15562 RECT_OPEN    5.8              50         0          0         
WEIR9atMC-156-MC-156MH1 RECT_OPEN    7.1              15         0          0         

[TRANSECTS]
;;Transect Data in HEC-2 format
;
NC 0.08     0.08     0.05    
X1 1                 7        -15      15       0.0      0.0      0        1        0       
GR 968      -65      966      -50      964      -15      963      0        964      15      
GR 966      50       968      65      
;
NC 0.08     0.08     0.05    
X1 2                 9        -6       10       0.0      0.0      0        1        0       
GR 940      -180     938      -130     936      -75      934      -6       933.8    0       
GR 934      10       936      60       938      85       940      100     
;
NC 0.05     0.05     0.05    
X1 3                 5        -150     50       0.0      0.0      0        1        0       
GR 929      -150     912      -150     910      0        912      50       929      50      
;
NC 0.05     0.05     0.05    
X1 4                 3        -100     100      0.0      0.0      0        1        0       
GR 930      -100     927      0        930      100     
;
NC 0.08     0.08     0.05    
X1 5                 9        -10      5        0.0      0.0      0        1        0       
GR 938      -22      934      -22      932      -12      930      -10      929      0       
GR 930      5        932      14       934      30       938      30      
;
NC 0.08     0.08     0.08    
X1 6                 5        -25      60       0.0      0.0      0        1        0       
GR 920      -40      918      -25      917      0        918      60       920      100     
;
NC 0.05     0.05     0.05    
X1 7                 5        -25      70       0.0      0.0      0        1        0       
GR 936      -60      934      -25      933      0        934      70       936      120     
;
NC 0.035    0.035    0.035   
X1 8                 4        -100     100      0.0      0.0      0        1        0       
GR 940      -200     939      -100     939      100      940      200     
;
NC 0.04     0.04     0.035   