;; SWMM5 .inp converted from XPSWMM .xp file
;; Generated by XPSWMM Card Reader
;; Source format: XP_CARD | Original title: SUNNYDALE XP-SWMM MODEL

[TITLE]
;;Project Title/Notes
SUNNYDALE XP-SWMM MODEL

[OPTIONS]
FLOW_UNITS           CFS
INFILTRATION         HORTON
FLOW_ROUTING         DYNWAVE
LINK_OFFSETS         DEPTH
MIN_SLOPE            0.0
ALLOW_PONDING        NO
SKIP_STEADY_STATE    NO
ROUTING_STEP         00:00:10
VARIABLE_STEP        0.75
INERTIAL_DAMPING     PARTIAL
NORMAL_FLOW_LIMITED  BOTH
MAX_TRIALS           50
HEAD_TOLERANCE       0.0033

[JUNCTIONS]
;;Name           Elev       MaxDepth   InitDepth  SurDepth   Aponded
;;-------------- ---------- ---------- ---------- ---------- ----------
1010             10.00      0          0          0          0
1020             15.00      0          0          0          0
1030             15.00      0          0          0          0
1040             10.00      0          0          0          0
1050             5.50       0          0          0          0
1070             5.50       0          0          0          0
1090             8.00       0          0          0          0
1100             11.00      0          0          0          0
1110             16.00      0          0          0          0
1120             23.00      0          0          0          0
1130             30.00      0          0          0          0
1140             37.00      0          0          0          0
1150             45.30      0          0          0          0
1160             53.90      0          0          0          0
1170             61.00      0          0          0          0
1180             67.60      0          0          0          0
1190             73.30      0          0          0          0
2000             10.30      0          0          0          0
2010             18.00      0          0          0          0
2020             25.00      0          0          0          0
2030             40.00      0          0          0          0
2040             72.00      0          0          0          0
2060             25.00      0          0          0          0
2070             19.00      0          0          0          0
2080             35.00      0          0          0          0
2090             54.00      0          0          0          0
2100             44.50      0          0          0          0
2110             51.00      0          0          0          0
2120             66.00      0          0          0          0
2130             39.00      0          0          0          0
2140             52.00      0          0          0          0
2150             58.00      0          0          0          0
2160             64.00      0          0          0          0
2170             70.00      0          0          0          0
2180             80.00      0          0          0          0
2190             95.00      0          0          0          0
2210             133.66     0          0          0          0
3000             12.00      0          0          0          0
3010             13.00      0          0          0          0
3020             16.60      0          0          0          0
3030             19.00      0          0          0          0
3040             27.00      0          0          0          0
3050             30.00      0          0          0          0
3060             36.50      0          0          0          0
3070             42.50      0          0          0          0
3080             49.00      0          0          0          0
3090             58.00      0          0          0          0
3100             68.00      0          0          0          0
3110             71.00      0          0          0          0
3120             83.00      0          0          0          0
3130             101.50     0          0          0          0
3140             111.00     0          0          0          0
3150             116.00     0          0          0          0
3170             120.00     0          0          0          0
3180             126.70     0          0          0          0
3190             134.20     0          0          0          0
3200             141.70     0          0          0          0
3210             159.40     0          0          0          0
3220             200.00     0          0          0          0
3230             32.00      0          0          0          0
3240             38.00      0          0          0          0
3250             45.00      0          0          0          0
3260             54.00      0          0          0          0
3270             63.00      0          0          0          0
3280             69.00      0          0          0          0
3290             72.28      0          0          0          0
3300             73.56      0          0          0          0
3310             105.60     0          0          0          0
3330             143.74     0          0          0          0
3340             158.40     0          0          0          0
3350             203.00     0          0          0          0
4000             45.00      0          0          0          0
4010             62.50      0          0          0          0
4020             71.00      0          0          0          0
4030             80.00      0          0          0          0
4040             89.00      0          0          0          0
4050             113.00     0          0          0          0
4060             139.50     0          0          0          0
4080             219.50     0          0          0          0
4090             236.00     0          0          0          0
4100             240.00     0          0          0          0
4110             76.50      0          0          0          0
4120             110.72     0          0          0          0
4130             111.39     0          0          0          0
4140             154.85     0          0          0          0
4150             110.22     0          0          0          0
4160             122.43     0          0          0          0
4170             142.00     0          0          0          0
4180             194.00     0          0          0          0
4190             245.00     0          0          0          0
4200             263.00     0          0          0          0
200              20.00      0          0          0          0
190              20.00      0          0          0          0
210              20.00      0          0          0          0
220              20.00      0          0          0          0
230              20.00      0          0          0          0
240              20.00      0          0          0          0
298              5.50       0          0          0          0
308              5.50       0          0          0          0
bay              5.50       0          0          0          0

[STORAGE]
;;Name           Elev       MaxDepth   InitDepth  Shape      Curve/Params
;;-------------- ---------- ---------- ---------- ---------- ----------
TOP              5.50       -6.50      0          FUNCTIONAL 1500.00 0          0
1060             5.50       0          0          FUNCTIONAL 25.00 0          0
1080             5.50       0          0          FUNCTIONAL 25.00 0          0
1200             79.10      0          0          FUNCTIONAL 25.00 0          0
1210             99.40      0          0          FUNCTIONAL 25.00 0          0
2050             92.00      0          0          FUNCTIONAL 25.00 0          0
2200             102.67     -7.67      0          FUNCTIONAL 0 0          0
2220             106.81     0          0          FUNCTIONAL 25.00 0          0
3160             116.00     0          0          FUNCTIONAL 25.00 0          0
3320             75.70      0          0          FUNCTIONAL 25.00 0          0
3360             180.00     0          0          FUNCTIONAL 12.00 0          0
3370             210.00     -9.33      0          FUNCTIONAL 12.00 0          0
4070             176.50     0          0          FUNCTIONAL 25.00 0          0
bottom           5.50       0          0          FUNCTIONAL 34300.00 0          0

[CONDUITS]
;;Name           From             To               Length     Roughness  InOffset   OutOffset  InitFlow   MaxFlow
;;-------------- ---------------- ---------------- ---------- ---------- ---------- ---------- ---------- ----------
1019             1020             1010             412.00     0.0130     -9.94      -10.97     0          0
1029             1030             1020             412.00     0.0130     -8.91      -9.94      0          0
1039             1040             1030             412.00     0.0140     -7.88      -8.91      0          0
1049             1050             1040             412.00     0.0160     -6.85      -7.88      0          0
1059             1060             1050             614.00     0.0130     -5.32      -6.85      0          0
1069             1070             1060             250.00     0.0130     -4.69      -5.32      0          0
1079             1080             1070             276.00     0.0140     -4.00      -4.69      0          0
1089             1090             1080             290.00     0.0130     -1.40      -4.00      0          0
1099             1100             1090             265.00     0.0160     1.00       -1.40      0          0
1109             1110             1100             277.00     0.0140     7.40       1.00       0          0
1129             1130             1120             277.00     0.0140     20.20      13.80      0          0
1139             1140             1130             277.00     0.0140     26.60      20.20      0          0
1149             1150             1140             277.00     0.0140     33.00      26.60      0          0
1159             1160             1150             286.00     0.0140     46.50      33.00      0          0
1169             1170             1160             286.00     0.0140     53.40      46.50      0          0
1179             1180             1170             286.00     0.0140     59.50      53.40      0          0
1189             1190             1180             286.00     0.0140     65.20      59.50      0          0
1199             1200             1190             286.00     0.0140     70.90      65.20      0          0
1209             1210             1200             420.00     0.0140     93.00      70.90      0          0
1999             2000             200              619.00     0.0140     2.30       -4.00      0          0
2009             2010             2000             328.00     0.0140     7.50       2.30       0          0
2019             2020             2010             261.00     0.0140     15.00      7.50       0          0
2029             2030             2020             275.00     0.0140     30.00      15.00      0          0
2039             2040             2030             220.00     0.0140     62.00      30.50      0          0
2049             2050             2040             310.00     0.0140     82.00      62.00      0          0
2059             2060             2000             275.00     0.0140     15.00      2.30       0          0
2069             2070             2000             60.00      0.0140     12.00      2.30       0          0
2079             2080             2070             560.00     0.0140     26.00      12.00      0          0
2089             2090             2080             220.00     0.0140     46.50      26.00      0          0
2099             2100             2010             580.00     0.0140     34.50      7.50       0          0
2109             2110             2020             600.00     0.0140     41.00      15.00      0          0
2119             2120             2030             650.00     0.0140     56.00      30.50      0          0
2129             2130             1110             619.00     0.0140     29.00      7.40       0          0
2139             2140             1130             618.00     0.0140     42.00      20.20      0          0
2149             2150             1140             618.00     0.0140     48.00      26.60      0          0
2159             2160             1150             618.00     0.0140     54.97      33.00      0          0
2169             2170             1160             618.00     0.0140     60.00      46.50      0          0
2179             2180             1170             618.00     0.0140     70.00      53.40      0          0
2189             2190             1180             618.00     0.0140     85.00      59.50      0          0
2199             2200             1190             618.00     0.0140     94.00      65.20      0          0
2209             2210             2200             435.00     0.0140     124.99     94.00      0          0
2219             2220             1200             618.00     0.0140     98.00      70.90      0          0
2999             3000             1100             385.00     0.0160     2.70       1.00       0          0
3009             3010             3000             306.00     0.0140     4.30       2.70       0          0
3019             3020             3010             277.00     0.0140     7.60       4.30       0          0
3029             3030             3020             278.00     0.0140     11.30      7.60       0          0
3039             3040             3030             268.00     0.0140     15.00      11.30      0          0
3049             3050             3040             415.00     0.0150     18.60      15.00      0          0
3059             3060             3050             260.00     0.0140     25.30      18.60      0          0
3069             3070             3060             260.00     0.0140     32.20      25.30      0          0
3079             3080             3070             261.00     0.0140     39.00      32.20      0          0
3089             3090             3080             360.00     0.0140     48.00      39.00      0          0
3099             3100             3090             270.00     0.0140     55.00      48.00      0          0
3109             3110             3100             396.00     0.0140     63.10      55.00      0          0
3119             3120             3110             249.00     0.0140     74.00      63.10      0          0
3129             3130             3120             210.00     0.0140     90.00      74.00      0          0
3139             3140             3130             365.00     0.0140     100.40     90.00      0          0
3149             3150             3140             326.00     0.0140     103.40     100.40     0          0
3159             3160             3150             160.00     0.0140     105.70     103.40     0          0
3169             3170             3160             221.00     0.0140     111.60     105.70     0          0
3179             3180             3170             200.00     0.0140     117.20     111.60     0          0
3189             3190             3180             200.00     0.0140     124.70     117.20     0          0
3199             3200             3190             135.00     0.0140     129.50     124.70     0          0
3209             3210             3200             470.00     0.0140     151.00     129.50     0          0
3219             3220             3210             1140.00    0.0140     192.00     151.00     0          0
3229             3230             3050             268.00     0.0140     22.80      18.60      0          0
3239             3240             3230             263.00     0.0140     29.50      22.80      0          0
3249             3250             3240             260.00     0.0140     36.60      29.50      0          0
3259             3260             3250             260.00     0.0140     45.00      36.60      0          0
3269             3270             3260             300.00     0.0140     53.20      45.00      0          0
3279             3280             3270             240.00     0.0140     61.50      53.20      0          0
3288             3110             3280             263.00     0.0140     63.10      61.50      0          0
3289             3290             3100             140.00     0.0140     64.08      55.00      0          0
3299             3300             3290             250.00     0.0140     65.83      64.08      0          0
3309             3310             3300             750.00     0.0140     98.50      65.83      0          0
3319             3320             3290             200.00     0.0140     69.00      64.08      0          0
3329             3330             3200             60.00      0.0140     133.50     129.50     0          0
3339             3340             3330             440.00     0.0140     151.00     133.50     0          0
3349             3350             3340             1110.00    0.0140     194.00     151.00     0          0
3359             3360             3330             410.00     0.0140     170.00     133.50     0          0
3369             3370             3360             790.00     0.0140     200.00     170.00     0          0
3999             4000             1120             619.00     0.0140     35.60      13.80      0          0
4009             4010             4000             435.00     0.0140     51.10      35.60      0          0
4019             4020             4010             260.00     0.0140     60.40      51.10      0          0
4029             4030             4020             260.00     0.0140     69.60      60.40      0          0
4039             4040             4030             290.00     0.0140     80.00      69.60      0          0
4049             4050             4040             230.00     0.0140     104.00     80.00      0          0
4059             4060             4050             260.00     0.0140     130.00     104.50     0          0
4069             4070             4060             260.00     0.0140     166.00     130.00     0          0
4079             4080             4070             260.00     0.0140     211.00     166.00     0          0
4089             4090             4080             260.00     0.0140     228.00     211.00     0          0
4099             4100             4090             340.00     0.0140     230.00     228.00     0          0
4109             4110             4010             650.00     0.0140     69.00      51.10      0          0
4119             4120             4110             650.00     0.0140     99.71      69.00      0          0
4129             4130             4020             650.00     0.0140     101.97     60.40      0          0
4139             4140             4130             650.00     0.0140     143.00     101.97     0          0
4149             4150             4030             650.00     0.0140     101.00     69.60      0          0
4159             4160             4040             650.00     0.0140     113.00     80.00      0          0
4169             4170             4050             650.00     0.0140     134.00     104.00     0          0
4179             4180             4170             650.00     0.0140     186.00     134.00     0          0
4189             4190             4180             650.00     0.0140     235.00     186.00     0          0
4199             4200             4190             260.00     0.0140     253.00     235.00     0          0
C                200              210              640.00     0.0160     -12.40     -14.32     0          0
A                1120             190              554.00     0.0160     -9.07      -10.73     0          0
B                190              200              555.00     0.0130     -10.73     -12.40     0          0
D                210              220              640.00     0.0130     -14.32     -16.24     0          0
E                220              230              640.00     0.0130     -16.24     -18.16     0          0
F                230              240              640.00     0.0130     -18.16     -20.08     0          0
1009             1010             TOP              412.00     0.0130     -10.97     -12.00     0          0
G                240              bottom           640.00     0.0130     -20.08     -22.00     0          0
307              298              bottom           200.00     0.0120     -11.00     -11.50     0          0
311              308              bay              200.00     0.0120     -15.00     -16.00     0          0

[WEIRS]
;;Name           From             To               Type       CrestHt    Qcoeff     Gated    EndCon   EndCoeff   Surcharge
;;-------------- ---------------- ---------------- ---------- ---------- ---------- -------- -------- ---------- ----------
weir             298              TOP              TRANSVERSE -4.00      1.840      NO       0        0          YES
weir2            bottom           308              TRANSVERSE -2.60      1.840      NO       0        0          YES

[XSECTIONS]
;;Link           Shape        Geom1      Geom2      Geom3      Geom4      Barrels
;;-------------- ------------ ---------- ---------- ---------- ---------- ----------
1019             CIRCULAR     6.50       0          0          0          1
1029             CIRCULAR     6.50       0          0          0          1
1039             CIRCULAR     6.50       0          0          0          1
1049             CIRCULAR     6.50       0          0          0          1
1059             CIRCULAR     6.50       0          0          0          1
1069             CIRCULAR     6.50       0          0          0          1
1079             CIRCULAR     6.50       0          0          0          1
1089             CIRCULAR     5.50       0          0          0          1
1099             CIRCULAR     5.50       0          0          0          1
1109             CIRCULAR     4.17       0          0          0          1
1129             CIRCULAR     4.00       0          0          0          1
1139             CIRCULAR     3.58       0          0          0          1
1149             CIRCULAR     3.58       0          0          0          1
1159             CIRCULAR     3.50       0          0          0          1
1169             CIRCULAR     3.50       0          0          0          1
1179             CIRCULAR     3.50       0          0          0          1
1189             CIRCULAR     3.50       0          0          0          1
1199             CIRCULAR     3.50       0          0          0          1
1209             CIRCULAR     2.50       0          0          0          1
1999             CIRCULAR     3.50       0          0          0          1
2009             CIRCULAR     3.00       0          0          0          1
2019             CIRCULAR     2.50       0          0          0          1
2029             CIRCULAR     2.00       0          0          0          1
2039             CIRCULAR     1.50       0          0          0          1
2049             CIRCULAR     1.50       0          0          0          1
2059             CIRCULAR     1.25       0          0          0          1
2069             CIRCULAR     1.50       0          0          0          1
2079             CIRCULAR     2.00       0          0          0          1
2089             CIRCULAR     1.50       0          0          0          1
2099             CIRCULAR     1.00       0          0          0          1
2109             CIRCULAR     1.00       0          0          0          1
2119             CIRCULAR     1.50       0          0          0          1
2129             CIRCULAR     1.00       0          0          0          1
2139             CIRCULAR     1.00       0          0          0          1
2149             CIRCULAR     1.00       0          0          0          1
2159             CIRCULAR     1.00       0          0          0          1
2169             CIRCULAR     1.00       0          0          0          1
2179             CIRCULAR     1.00       0          0          0          1
2189             CIRCULAR     1.00       0          0          0          1
2199             CIRCULAR     1.25       0          0          0          1
2209             CIRCULAR     1.00       0          0          0          1
2219             CIRCULAR     2.00       0          0          0          1
2999             CIRCULAR     6.50       0          0          0          1
3009             CIRCULAR     6.00       0          0          0          1
3019             CIRCULAR     5.50       0          0          0          1
3029             CIRCULAR     5.00       0          0          0          1
3039             CIRCULAR     4.50       0          0          0          1
3049             CIRCULAR     5.50       0          0          0          1
3059             CIRCULAR     4.00       0          0          0          1
3069             CIRCULAR     4.00       0          0          0          1
3079             CIRCULAR     4.00       0          0          0          1
3089             CIRCULAR     4.00       0          0          0          1
3099             CIRCULAR     4.00       0          0          0          1
3109             CIRCULAR     3.58       0          0          0          1
3119             CIRCULAR     3.50       0          0          0          1
3129             CIRCULAR     3.50       0          0          0          1
3139             CIRCULAR     3.50       0          0          0          1
3149             CIRCULAR     4.00       0          0          0          1
3159             CIRCULAR     4.00       0          0          0          1
3169             CIRCULAR     3.50       0          0          0          1
3179             CIRCULAR     3.25       0          0          0          1
3189             CIRCULAR     3.25       0          0          0          1
3199             CIRCULAR     3.25       0          0          0          1
3209             CIRCULAR     1.75       0          0          0          1
3219             CIRCULAR     1.25       0          0          0          1
3229             CIRCULAR     2.75       0          0          0          1
3239             CIRCULAR     2.75       0          0          0          1
3249             CIRCULAR     2.75       0          0          0          1
3259             CIRCULAR     2.75       0          0          0          1
3269             CIRCULAR     2.75       0          0          0          1
3279             CIRCULAR     2.75       0          0          0          1
3288             CIRCULAR     2.75       0          0          0          1
3289             CIRCULAR     2.00       0          0          0          1
3299             CIRCULAR     2.00       0          0          0          1
3309             CIRCULAR     1.50       0          0          0          1
3319             CIRCULAR     1.75       0          0          0          1
3329             CIRCULAR     2.50       0          0          0          1
3339             CIRCULAR     2.25       0          0          0          1
3349             CIRCULAR     1.75       0          0          0          1
3359             CIRCULAR     1.50       0          0          0          2
3369             CIRCULAR     1.50       0          0          0          1
3999             CIRCULAR     4.00       0          0          0          1
4009             CIRCULAR     4.00       0          0          0          1
4019             CIRCULAR     4.00       0          0          0          1
4029             CIRCULAR     3.50       0          0          0          1
4039             CIRCULAR     3.50       0          0          0          1
4049             CIRCULAR     2.50       0          0          0          1
4059             CIRCULAR     2.50       0          0          0          1
4069             CIRCULAR     2.00       0          0          0          1
4079             CIRCULAR     1.50       0          0          0          1
4089             CIRCULAR     1.50       0          0          0          1
4099             CIRCULAR     1.50       0          0          0          1
4109             CIRCULAR     1.50       0          0          0          1
4119             CIRCULAR     1.00       0          0          0          1
4129             CIRCULAR     1.50       0          0          0          1
4139             CIRCULAR     1.50       0          0          0          1
4149             CIRCULAR     1.25       0          0          0          1
4159             CIRCULAR     1.25       0          0          0          1
4169             CIRCULAR     1.75       0          0          0          1
4179             CIRCULAR     1.25       0          0          0          1
4189             CIRCULAR     1.25       0          0          0          1
4199             CIRCULAR     1.25       0          0          0          1
C                CIRCULAR     9.00       0          0          0          1
A                CIRCULAR     7.50       0          0          0          1
B                CIRCULAR     9.00       0          0          0          1
D                CIRCULAR     9.00       0          0          0          1
E                CIRCULAR     9.00       0          0          0          1
F                CIRCULAR     9.00       0          0          0          1
1009             CIRCULAR     6.50       0          0          0          1
G                CIRCULAR     9.00       5.00       0          0          1
307              CIRCULAR     10.00      0          0          0          1
311              CIRCULAR     10.00      0          0          0          1
weir             RECT_OPEN    0          80.00      0          0          
weir2            RECT_OPEN    0          128.00     0          0          

[LOSSES]