;; SWMM5 .inp converted from XPSWMM .xp file
;; Generated by XPSWMM Card Reader
;; Source format: XP_CARD | Original title: SCS PROJECT FOR HERRING CREST SUBDIVISION

[TITLE]
;;Project Title/Notes
SCS PROJECT FOR HERRING CREST SUBDIVISION

[OPTIONS]
FLOW_UNITS           CFS
INFILTRATION         HORTON
FLOW_ROUTING         DYNWAVE
LINK_OFFSETS         DEPTH
MIN_SLOPE            0.0
ALLOW_PONDING        NO
SKIP_STEADY_STATE    NO
ROUTING_STEP         00:00:04
VARIABLE_STEP        0.75
INERTIAL_DAMPING     PARTIAL
NORMAL_FLOW_LIMITED  BOTH
MAX_TRIALS           50
HEAD_TOLERANCE       0.0033

[JUNCTIONS]
;;Name           Elev       MaxDepth   InitDepth  SurDepth   Aponded
;;-------------- ---------- ---------- ---------- ---------- ----------
0                14.00      0          0          0          0
0                14.00      0          0          0          0
0                13.70      0          0          0          0
0                14.00      0          0          0          0
0                13.80      0          0          0          0
0                13.75      0          1.25       0          0
0                13.75      0          1.25       0          0
0                13.75      0          0          0          0
0                13.75      0          0          0          0
0                14.00      0          0          0          0
0                13.90      0          0          0          0
0                14.00      0          0          0          0
0                13.75      0          0          0          0
0                14.00      0          0          0          0
0                13.75      0          0          0          0
0                13.75      0          0          0          0
0                13.75      0          0          0          0
0                13.80      0          0          0          0
0                13.80      0          0          0          0
0                14.00      0          3.09       0          0
0                14.00      0          0          0          0
0                12.40      0          0          0          0
0                14.00      0          0          0          0
0                12.20      0          0          0          0
0                14.00      0          0          0          0
0                14.00      0          5.50       0          0
0                17.20      0          0          0          0
0                16.80      0          0          0          0
0                17.00      0          0          0          0
0                18.20      0          5.25       0          0
0                15.00      0          0          0          0
0                15.00      0          0          0          0
0                18.00      0          0          0          0
0                16.00      0          0          0          0
0                15.60      0          0          0          0
0                16.50      0          0          0          0
0                20.40      0          0          0          0
0                14.00      0          0          0          0
0                1.00       0          0          0          0
0                1.00       0          0          0          0

[CONDUITS]
;;Name           From             To               Length     Roughness  InOffset   OutOffset  InitFlow   MaxFlow
;;-------------- ---------------- ---------------- ---------- ---------- ---------- ---------- ---------- ----------
201              0                0                250.00     0.0140     10.60      10.00      0          0
202              0                0                200.00     0.0140     10.00      9.50       0          0
206              0                0                90.00      0.0140     10.60      10.20      0          0
207              0                0                250.00     0.0140     10.20      9.50       0          0
204              0                0                109.00     0.0140     9.50       9.25       0          0
210              0                0                120.00     0.0140     9.25       9.25       0          0
214              0                0                216.00     0.0140     6.77       6.23       0          0
216              0                0                40.00      0.0140     5.68       5.58       0          0
282              0                0                40.00      0.0140     10.00      9.40       0          0
222              0                0                340.00     0.0140     8.00       6.77       0          0
280              0                0                620.00     0.0140     9.25       7.25       0          0
239              0                0                150.00     0.0140     7.25       6.99       0          0
242              0                0                292.00     0.0140     11.77      11.04      0          0
224              0                0                133.00     0.0140     11.67      11.34      0          0
243              0                0                240.00     0.0140     10.84      10.24      0          0
255              0                0                60.00      0.0140     6.03       5.88       0          0
257              0                0                130.00     0.0140     5.38       5.05       0          0
260              0                0                40.00      0.0140     11.14      11.04      0          0
220              0                0                120.00     0.0140     8.40       8.10       0          0
264              0                0                196.00     0.0140     7.90       7.41       0          0
305              0                0                25.00      0.0140     9.25       9.00       0          0
268              0                0                380.00     0.0350     8.20       7.90       0          0
276              0                0                50.00      0.0140     8.00       7.75       0          0
277              0                0                60.00      0.0350     7.60       7.60       0          0
283              0                0                800.00     0.0140     14.00      8.70       0          0
284              0                0                700.00     0.0140     8.71       6.20       0          0
286              0                0                150.00     0.0140     6.20       6.00       0          0
288              0                0                220.00     0.0140     12.50      10.30      0          0
291              0                0                420.00     0.0140     10.00      9.60       0          0
292              0                0                460.00     0.0140     9.60       6.20       0          0
295              0                0                500.00     0.0140     13.50      9.60       0          0
297              0                0                400.00     0.0140     14.00      13.60      0          0
298              0                0                400.00     0.0140     13.60      13.20      0          0
300              0                0                270.00     0.0140     12.00      9.30       0          0
303              0                0                1290.00    0.0140     18.40      16.20      0          0

[WEIRS]
;;Name           From             To               Type       CrestHt    Qcoeff     Gated    EndCon   EndCoeff   Surcharge
;;-------------- ---------------- ---------------- ---------- ---------- ---------- -------- -------- ---------- ----------
212              0                0                TRANSVERSE 10.50      1.840      NO       0        0          YES
266              0                0                TRANSVERSE 10.50      1.840      NO       0        0          YES

[XSECTIONS]
;;Link           Shape        Geom1      Geom2      Geom3      Geom4      Barrels
;;-------------- ------------ ---------- ---------- ---------- ---------- ----------
201              CIRCULAR     1.50       0          0          0          1
202              CIRCULAR     1.50       0          0          0          1
206              CIRCULAR     1.50       0          0          0          1
207              CIRCULAR     1.50       0          0          0          1
204              CIRCULAR     2.00       0          0          0          1
210              CIRCULAR     2.00       0          0          0          1
214              CIRCULAR     2.50       0          0          0          1
216              CIRCULAR     3.50       0          0          0          1
282              CIRCULAR     3.00       0          0          0          1
222              CIRCULAR     2.50       0          0          0          1
280              CIRCULAR     2.00       0          0          0          1
239              CIRCULAR     2.50       0          0          0          1
242              CIRCULAR     1.50       0          0          0          1
224              CIRCULAR     1.50       0          0          0          1
243              CIRCULAR     2.00       0          0          0          1
255              CIRCULAR     3.00       0          0          0          1
257              CIRCULAR     3.50       0          0          0          1
260              CIRCULAR     1.50       0          0          0          1
220              CIRCULAR     3.50       0          0          0          1
264              CIRCULAR     3.50       0          0          0          1
305              CIRCULAR     3.50       0          0          0          1
268              TRAPEZOIDAL  4.00       7.80       0          0          1
276              CIRCULAR     3.00       0          0          0          1
277              TRAPEZOIDAL  4.00       5.27       0          0          1
283              CIRCULAR     3.00       0          0          0          1
284              CIRCULAR     3.00       0          0          0          1
286              CIRCULAR     4.00       0          0          0          1
288              CIRCULAR     2.00       0          0          0          1
291              CIRCULAR     2.00       0          0          0          1
292              CIRCULAR     3.00       0          0          0          1
295              CIRCULAR     3.00       0          0          0          1
297              TRAPEZOIDAL  2.00       2.00       0          0          1
298              TRAPEZOIDAL  2.00       2.00       0          0          1
300              CIRCULAR     3.00       0          0          0          1
303              TRAPEZOIDAL  2.00       2.00       0          0          1
212              RECT_OPEN    0          2.00       0          0          
266              RECT_OPEN    0          2.00       0          0          

[LOSSES]
;;Link           Inlet      Outlet     Average    Flap Gate
;;-------------- ---------- ---------- ---------- ----------
201              0          0          0          NO
202              0          0          0          NO
206              0          0          0          NO
207              0          0          0          NO
204              0          0          0          NO
210              0          0          0          NO
214              0          0          0          NO
216              0          0          0          NO
282              0          0          0          NO
222              0          0          0          NO
280              0          0          0          NO
239              0          0          0          NO
242              0          0          0          NO
224              0          0          0          NO
243              0          0          0          NO
255              0          0          0          NO
257              0          0          0          NO
260              0          0          0          NO
220              0          0          0          NO
264              0          0          0          NO
305              0          0          0          NO
268              0          0          0          NO
276              0          0          0          NO
277              0          0          0          NO
283              0          0          0          NO
284              0          0          0          NO
286              0          0          0          NO
288              0          0          0          NO
291              0          0          0          NO
292              0          0          0          NO
295              0          0          0          NO
297              0          0          0          NO
298              0          0          0          NO
300              0          0          0          NO
303              0          0          0          NO

[COORDINATES]
;;Node           X-Coord            Y-Coord
;;-------------- ------------------ ------------------
0                25.15              96.36             
0                58.84              86.53             
0                81.13              89.28             
0                113.86             138.44            
0                113.39             87.71             
0                80.18              55.46             
0                77.81              18.49             
0                152.50             17.61             
0                152.76             74.73             
0                207.32             58.60             
0                143.28             -29.50            
0                108.17             66.47             
0                124.30             30.28             
0                138.06             96.75             
0                136.64             73.55             
0                152.91             51.87             
0                172.23             73.94             
0                123.84             70.80             
0                210.65             27.93             
0                201.46             -8.67             
0                228.57             -66.46            
0                170.12             -85.91            
0                170.81             -24.27            
0                196.66             -75.52            
0                99.01              23.99             
0                201.37             100.21            
0                272.20             179.34            
0                272.20             133.28            
0                253.01             110.91            
0                225.87             92.47             
0                251.81             169.15            
0                225.40             150.03            
0                225.49             209.56            
0                262.15             240.39            
0                206.30             237.28            
0                198.80             163.20            
0                273.85             100.51            
0                227.01             -35.79            
0                76.73              -71.95            
0                49.36              -74.69            

[MAP]
DIMENSIONS 25.15 -85.91 273.85 240.39
Units      None

[REPORT]
INPUT            YES
SUBCATCHMENTS    ALL
NODES            ALL
LINKS            ALL



