;; SWMM5 .inp converted from XPSWMM .xp file
;; Generated by XPSWMM Card Reader
;; Source format: XP_CARD | Original title: Newhope and Santa Ana River Interceptors

[TITLE]
;;Project Title/Notes
Newhope and Santa Ana River Interceptors

[OPTIONS]
FLOW_UNITS           CFS
INFILTRATION         HORTON
FLOW_ROUTING         DYNWAVE
LINK_OFFSETS         DEPTH
MIN_SLOPE            0.0
ALLOW_PONDING        NO
SKIP_STEADY_STATE    NO
ROUTING_STEP         00:00:05
VARIABLE_STEP        0.75
INERTIAL_DAMPING     PARTIAL
NORMAL_FLOW_LIMITED  BOTH
MAX_TRIALS           100
HEAD_TOLERANCE       0.0033

[JUNCTIONS]
;;Name           Elev       MaxDepth   InitDepth  SurDepth   Aponded
;;-------------- ---------- ---------- ---------- ---------- ----------
RIV03021         37.10      0          0          0          0
RIV04342         36.00      0          0          0          0
RIV05659         39.00      0          0          0          0
RIV07047         42.20      0          0          0          0
RIV08456         46.40      0          0          0          0
RIV09708         52.80      0          0          0          0
RIV11054         54.00      0          0          0          0
RIV12367         62.40      0          0          0          0
RIV13686         68.90      0          0          0          0
RIV15011         72.20      0          0          0          0
RIV16333         74.80      0          0          0          0
RIV17714         81.40      0          0          0          0
RIV19016         82.90      0          0          0          0
RIV20333         83.00      0          0          0          0
RIV21645         87.20      0          0          0          0
RIV22996         92.00      0          0          0          0
RIV24339         92.40      0          0          0          0
RIV25716         99.40      0          0          0          0
RIV27033         100.70     0          0          0          0
RIV28315         100.00     0          0          0          0
RIV29579         106.00     0          0          0          0
RIV30819         109.00     0          0          0          0
RIV32016         116.00     0          0          0          0
RIV33235         122.00     0          0          0          0
RIV33899         126.00     0          0          0          0
RIV35454         122.40     0          0          0          0
RIV33479         128.00     0          0          0          0
RIV36274         126.40     0          0          0          0
RIV37454         133.40     0          0          0          0
RIV38618         142.40     0          0          0          0
RIV39854         136.90     0          0          0          0
RIV41083         151.60     0          0          0          0
RIV42320         154.90     0          0          0          0
RIV42644         165.00     0          0          0          0
RIV43698         154.40     0          0          0          0
RIV44386         154.40     0          0          0          0
RIV45298         162.00     0          0          0          0
RIV45951         164.00     0          0          0          0
RIV46056         166.50     0          0          0          0
RIW47134         166.90     0          0          0          0
RIW48255         169.80     0          0          0          0
RIW49548         180.30     0          0          0          0
RIW50844         185.40     0          0          0          0
RIW52141         190.00     0          0          0          0
RIW53453         194.10     0          0          0          0
RIW54504         197.00     0          0          0          0
RIW55707         201.00     0          0          0          0
RIW56671         208.70     0          0          0          0
RIW57671         208.30     0          0          0          0
RIW58613         211.20     0          0          0          0
RIW59590         220.90     0          0          0          0
RIW60871         224.00     0          0          0          0
RIW62166         227.30     0          0          0          0
RIW63471         231.80     0          0          0          0
RIW64189         232.80     0          0          0          0
RIW64330         239.00     0          0          0          0
RIW65451         232.00     0          0          0          0
RIW66838         232.70     0          0          0          0
RIW67560         232.10     0          0          0          0
RIX67806         239.80     0          0          0          0
RIX68438         242.00     0          0          0          0
RIX69303         239.40     0          0          0          0
RIX69646         240.20     0          0          0          0
RIX70637         243.40     0          0          0          0
RIX71625         245.20     0          0          0          0
RIX72596         248.60     0          0          0          0
RIX73071         249.80     0          0          0          0
RIX73194         250.60     0          0          0          0
RIX73581         252.00     0          0          0          0
RIX74753         256.40     0          0          0          0
RIX75884         259.80     0          0          0          0
RIX76621         261.60     0          0          0          0
RIX77831         266.40     0          0          0          0
RIX79044         268.40     0          0          0          0
RIX80207         270.00     0          0          0          0
RIX81573         275.80     0          0          0          0
RIX82875         280.60     0          0          0          0
RIX83354         286.60     0          0          0          0
RIX84120         287.60     0          0          0          0
RIY085320        290.90     0          0          0          0
RIY086300        293.90     0          0          0          0
RIY087383        294.20     0          0          0          0
RIY088300        300.50     0          0          0          0
RIY089198        302.50     0          0          0          0
RIY090493        303.50     0          0          0          0
RIY091350        308.50     0          0          0          0
RIY092043        310.00     0          0          0          0
RIY092770        311.50     0          0          0          0
RIY093400        313.70     0          0          0          0
RIY094650        317.00     0          0          0          0
RIY095750        327.50     0          0          0          0
RIY097050        326.00     0          0          0          0
RIY097700        325.90     0          0          0          0
RIY099000        325.50     0          0          0          0
RIY099100        333.10     0          0          0          0
RIY100000        331.80     0          0          0          0
RIY101000        337.00     0          0          0          0
RIY101731        341.00     0          0          0          0
RIY102002        342.40     0          0          0          0
RIY103088        347.20     0          0          0          0
RIY104244        346.80     0          0          0          0
RIY105397        352.40     0          0          0          0
RIY106300        354.60     0          0          0          0
RIY107100        358.40     0          0          0          0
RIY107866        361.00     0          0          0          0
RIY108900        363.50     0          0          0          0
RIY109720        365.10     0          0          0          0
RIY110544        366.00     0          0          0          0
RIY110800        370.20     0          0          0          0
RIY111702        372.40     0          0          0          0
RIZ112700        376.60     0          0          0          0
RIZ113295        378.30     0          0          0          0
RIZ114635        382.10     0          0          0          0
RIZ115247        383.40     0          0          0          0
RIZ116521        393.80     0          0          0          0
RIZ117207        396.00     0          0          0          0
RIZ118468        397.20     0          0          0          0
RIZ119500        413.20     0          0          0          0
RIZ120368        405.80     0          0          0          0
RIZ121600        412.10     0          0          0          0
RIZ122756        416.00     0          0          0          0
RIZ122811        416.20     0          0          0          0
RIZ123003        418.40     0          0          0          0
RIZ123717        438.80     0          0          0          0
RIX00654         289.60     0          0          0          0
RIX01145         291.40     0          0          0          0
RIX01590         291.80     0          0          0          0
RIX02502         303.20     0          0          0          0
RSC00489         304.40     0          0          0          0
RSC00698         301.00     0          0          0          0
RSC00858         301.00     0          0          0          0
RSC01107         300.00     0          0          0          0
RSC01298         299.00     0          0          0          0
RSC01773         286.40     0          0          0          0
RSC02248         285.60     0          0          0          0
RSC02694         287.80     0          0          0          0
RSC02833         290.60     0          0          0          0
RSC03257         291.00     0          0          0          0
RSC03681         291.90     0          0          0          0
RSC04104         291.20     0          0          0          0
RSC04482         294.00     0          0          0          0
RSC04547         294.00     0          0          0          0
RSC04707         292.70     0          0          0          0
RSC05275         295.00     0          0          0          0
RSC05795         295.70     0          0          0          0
RSC06482         297.00     0          0          0          0
RSC06894         302.80     0          0          0          0
RSC07229         302.60     0          0          0          0
RSC07629         303.00     0          0          0          0
RSC08034         304.00     0          0          0          0
RSC08658         304.60     0          0          0          0
RSC08939         304.90     0          0          0          0
RSC09212         305.00     0          0          0          0
RSC09780         306.80     0          0          0          0
RSC10331         312.60     0          0          0          0
RSC10691         318.70     0          0          0          0
RSC11010         330.10     0          0          0          0
RKB18984         303.60     0          0          0          0
RKB19484         308.00     0          0          0          0
RKB19984         312.00     0          0          0          0
RKB20385         313.60     0          0          0          0
RKB20885         318.40     0          0          0          0
RKB21385         322.10     0          0          0          0
RKB21874         326.30     0          0          0          0
RKB22040         327.00     0          0          0          0
RKB22372         328.30     0          0          0          0
RKB22874         334.50     0          0          0          0
RKB23461         343.30     0          0          0          0
RKB23961         341.30     0          0          0          0
RKB24347         340.40     0          0          0          0
RKB24800         352.70     0          0          0          0
RKB25250         348.00     0          0          0          0
RKB25672         361.20     0          0          0          0
RKB26100         363.40     0          0          0          0
RKB26550         361.10     0          0          0          0
RKB26950         367.60     0          0          0          0
RYL06905         350.00     0          0          0          0
RCC00160         232.60     0          0          0          0
RCC01307         229.40     0          0          0          0
RCC01609         229.40     0          0          0          0
RCC02746         229.00     0          0          0          0
RCC04094         226.60     0          0          0          0
RCC05306         227.60     0          0          0          0
RCC06489         227.60     0          0          0          0
RCC06578         230.20     0          0          0          0
RCC06877         232.20     0          0          0          0
RCC07252         234.80     0          0          0          0
RCP07455         233.50     0          0          0          0
RCP07955         237.70     0          0          0          0
RCP08480         243.60     0          0          0          0
RCP08980         244.50     0          0          0          0
RCP10036         252.20     0          0          0          0
RCP10494         257.00     0          0          0          0
RCP10875         263.00     0          0          0          0
RCP11273         261.30     0          0          0          0
RCP11740         266.00     0          0          0          0
RCP12730         271.40     0          0          0          0
RCP13318         275.00     0          0          0          0
RCP13588         279.30     0          0          0          0
RCQ13715         280.80     0          0          0          0
RCQ14105         292.30     0          0          0          0
RCQ14670         297.20     0          0          0          0
RCQ15340         297.80     0          0          0          0
RCQ16006         299.10     0          0          0          0
RCQ16606         301.30     0          0          0          0
RCQ17206         303.90     0          0          0          0
RCQ17790         303.50     0          0          0          0
RCQ18377         303.20     0          0          0          0
RCQ18852         302.50     0          0          0          0
ROK00055         264.30     0          0          0          0
ROK00541         266.80     0          0          0          0
ROK01043         267.00     0          0          0          0
ROK01443         266.80     0          0          0          0
ROK01726         267.70     0          0          0          0
ROK01976         272.00     0          0          0          0
RCD00200         280.80     0          0          0          0
RCD00634         288.80     0          0          0          0
RCD01074         299.80     0          0          0          0
RCD01600         301.50     0          0          0          0
RCD02044         303.70     0          0          0          0
RCD02514         305.10     0          0          0          0
RCD03000         307.80     0          0          0          0
RCD03476         314.00     0          0          0          0
RCD03964         318.40     0          0          0          0
RCD04347         324.50     0          0          0          0
RCD04600         330.80     0          0          0          0
RCD05087         344.50     0          0          0          0
RCD05530         347.50     0          0          0          0
RCD05968         349.20     0          0          0          0
RCD06250         343.00     0          0          0          0
RCD06472         348.90     0          0          0          0
RCD06936         367.90     0          0          0          0
RCD07400         374.00     0          0          0          0
RCD08000         377.00     0          0          0          0
RCD08558         384.80     0          0          0          0
RCD08773         387.60     0          0          0          0
RCD09225         391.30     0          0          0          0
RCD09403         402.10     0          0          0          0
RCD09850         405.00     0          0          0          0
RCD10352         412.40     0          0          0          0
RCD10850         406.00     0          0          0          0
RCD11348         400.20     0          0          0          0
RCD11933         402.20     0          0          0          0
RML00193         119.80     0          0          0          0
RML00865         118.80     0          0          0          0
RML00992         116.00     0          0          0          0
RML01350         118.00     0          0          0          0
RML01900         119.00     0          0          0          0
RML02500         121.60     0          0          0          0
RML03000         125.00     0          0          0          0
RML03600         129.40     0          0          0          0
RML04000         130.30     0          0          0          0
RML04383         130.90     0          0          0          0
RML04710         132.60     0          0          0          0
RML05150         136.00     0          0          0          0
RML05600         138.00     0          0          0          0
RML06021         143.00     0          0          0          0
RML06130         143.50     0          0          0          0
RML06435         146.00     0          0          0          0
RML06568         145.30     0          0          0          0
RML07000         148.00     0          0          0          0
RML07466         152.90     0          0          0          0
RML07941         155.90     0          0          0          0
RML08310         152.00     0          0          0          0
RML08405         153.40     0          0          0          0
RML09099         158.80     0          0          0          0
RML09500         160.90     0          0          0          0
RML09744         165.00     0          0          0          0
RML10150         169.20     0          0          0          0
RML10650         172.90     0          0          0          0
RML11654         171.60     0          0          0          0
RML11745         170.90     0          0          0          0
RML12367         165.40     0          0          0          0
RML12400         165.00     0          0          0          0
ROS04750         158.00     0          0          0          0
ROS04840         171.50     0          0          0          0
ROS04905         171.50     0          0          0          0
ROS05282         162.50     0          0          0          0
ROS05650         168.00     0          0          0          0
ROS06044         169.00     0          0          0          0
ROS06249         167.50     0          0          0          0
ROS06512         167.50     0          0          0          0
ROS06848         166.00     0          0          0          0
ROS07350         169.00     0          0          0          0
ROS07884         172.00     0          0          0          0
ROS08080         174.00     0          0          0          0
ROS08660         174.50     0          0          0          0
ROS08941         176.00     0          0          0          0
ROS09210         177.00     0          0          0          0
ROS09323         178.00     0          0          0          0
ROS09379         179.50     0          0          0          0
RTG00198         178.50     0          0          0          0
RTG00445         177.50     0          0          0          0
RTG00945         179.50     0          0          0          0
RTG01438         180.50     0          0          0          0
RTG01503         180.50     0          0          0          0
RTG02050         184.00     0          0          0          0
RTG02450         187.00     0          0          0          0
RTG02786         191.50     0          0          0          0
RTG05475         214.00     0          0          0          0
RTG05850         222.00     0          0          0          0
RTG06275         232.00     0          0          0          0
RTG06700         235.50     0          0          0          0
RTG07125         237.00     0          0          0          0
RTG07550         240.00     0          0          0          0
RTG07969         251.00     0          0          0          0
RTG09202         248.50     0          0          0          0
RTG09527         250.00     0          0          0          0
RTG09682         250.50     0          0          0          0
RTG09830         250.00     0          0          0          0
RTG10148         250.00     0          0          0          0
RTG10251         250.00     0          0          0          0
RTG10318         250.00     0          0          0          0
RTG10506         250.00     0          0          0          0
RTG10671         251.00     0          0          0          0
RTG10774         252.00     0          0          0          0
RTG10861         253.50     0          0          0          0
RTG11205         258.00     0          0          0          0
RTG11550         262.00     0          0          0          0
RTG11892         267.00     0          0          0          0
RTG12213         272.50     0          0          0          0
RTG12383         275.00     0          0          0          0
RTG12506         276.50     0          0          0          0
RTG12638         279.00     0          0          0          0
RTG12786         286.50     0          0          0          0
RTG12910         283.00     0          0          0          0
RTG13200         289.50     0          0          0          0
RTG13575         299.00     0          0          0          0
RTG07900         208.00     0          0          0          0
RTG08300         208.00     0          0          0          0
RTG08675         208.00     0          0          0          0
RTG09050         208.00     0          0          0          0
RTG09232         208.40     0          0          0          0
RTG09426         208.50     0          0          0          0
RTG09795         210.00     0          0          0          0
RTG09946         211.00     0          0          0          0
RTG10150         212.50     0          0          0          0
RTG10350         215.00     0          0          0          0
RTG10500         215.00     0          0          0          0
RTG10850         217.00     0          0          0          0
RTG11163         220.00     0          0          0          0
RTG11450         221.00     0          0          0          0
RTG11675         222.00     0          0          0          0
RTG11760         222.00     0          0          0          0
RTI00500         177.10     0          0          0          0
RTI00882         176.20     0          0          0          0
RTI01021         174.90     0          0          0          0
RTI01539         175.10     0          0          0          0
RTI02140         176.50     0          0          0          0
RTI02674         178.00     0          0          0          0
RTI03149         179.00     0          0          0          0
RTI03708         178.40     0          0          0          0
RTI04045         178.00     0          0          0          0
RTI04178         180.10     0          0          0          0
RTI04594         181.90     0          0          0          0
RTI04778         184.30     0          0          0          0
RAS14266         226.20     0          0          0          0
RAS14540         227.00     0          0          0          0
RAS15311         229.00     0          0          0          0
RAS15782         230.50     0          0          0          0
RAS16082         231.20     0          0          0          0
RAS16442         232.20     0          0          0          0
RAS16854         234.40     0          0          0          0
RAS17550         235.90     0          0          0          0
RAS18225         233.80     0          0          0          0
RAS18548         235.00     0          0          0          0
RAS18863         235.00     0          0          0          0
RAS19095         237.70     0          0          0          0
RAS19475         240.00     0          0          0          0
RAS19845         240.40     0          0          0          0
RAS20075         240.50     0          0          0          0
RAS20560         243.00     0          0          0          0
RAS21430         244.00     0          0          0          0
RAS21862         244.00     0          0          0          0
RAS22302         245.90     0          0          0          0
RAS23013         247.00     0          0          0          0
RAS23475         250.00     0          0          0          0
RAS23905         251.70     0          0          0          0
RAS23947         251.90     0          0          0          0
RAS24132         252.60     0          0          0          0
RAS24325         253.00     0          0          0          0
RAS24710         254.00     0          0          0          0
RAS25300         254.00     0          0          0          0
RAS25665         254.60     0          0          0          0
RAS26197         255.40     0          0          0          0
RAS26635         257.20     0          0          0          0
RAS26850         258.00     0          0          0          0
RAS27375         259.50     0          0          0          0
RAS28105         262.00     0          0          0          0
RAS28182         262.10     0          0          0          0
RAS28538         264.00     0          0          0          0
RAS28806         264.50     0          0          0          0
RAS29216         265.60     0          0          0          0
RAS29894         268.00     0          0          0          0
RAS30067         268.90     0          0          0          0
RAS30350         269.70     0          0          0          0
RAS30743         272.50     0          0          0          0
RAS31236         274.40     0          0          0          0
RAS31405         275.00     0          0          0          0
RAS31889         278.00     0          0          0          0
RAS32709         281.00     0          0          0          0
RAS33075         283.20     0          0          0          0
RAS33600         287.00     0          0          0          0
RAS34243         290.80     0          0          0          0
RAS34560         292.60     0          0          0          0
RAS34945         295.60     0          0          0          0
RER02486         288.60     0          0          0          0
PNH02161         28.00      0          0          0          0
PNH03369         32.00      0          0          0          0
PNH04577         34.00      0          0          0          0
PNH05699         35.00      0          0          0          0
PNH06888         37.50      0          0          0          0
PNH08216         40.00      0          0          0          0
PNH09525         44.50      0          0          0          0
PNH10841         46.00      0          0          0          0
PNH12169         48.50      0          0          0          0
PNH13497         51.00      0          0          0          0
PNH14830         55.00      0          0          0          0
PNH16132         63.15      0          0          0          0
PNH17448         62.00      0          0          0          0
PNH18260         60.00      0          0          0          0
PNH18704         63.00      0          0          0          0
PNH19945         65.00      0          0          0          0
PNH21313         70.50      0          0          0          0
PNH22598         70.50      0          0          0          0
PNH22686         73.00      0          0          0          0
PNH23954         78.00      0          0          0          0
PNH25223         82.00      0          0          0          0
PNH25326         82.00      0          0          0          0
PNH26774         83.00      0          0          0          0
PNH28537         87.00      0          0          0          0
PNH29048         89.00      0          0          0          0
PNH30606         96.00      0          0          0          0
PNH31917         97.50      0          0          0          0
PNH33236         99.00      0          0          0          0
PNH34562         103.00     0          0          0          0
PNH35865         103.50     0          0          0          0
PNH37191         104.00     0          0          0          0
PNH38520         110.00     0          0          0          0
PNH39372         110.00     0          0          0          0
PNH40213         120.50     0          0          0          0
PNH41026         121.00     0          0          0          0
PNH41962         121.50     0          0          0          0
PRH00022         261.00     0          0          0          0
PRH00063         260.30     0          0          0          0
PRH02355         272.50     0          0          0          0
PRH02576         271.00     0          0          0          0
PRH02890         270.00     0          0          0          0
PRH03188         269.80     0          0          0          0
PRH03752         269.50     0          0          0          0
PRH04600         273.00     0          0          0          0
PRH05030         274.50     0          0          0          0
PRH05380         289.00     0          0          0          0
PRH05605         298.00     0          0          0          0
PRH05823         309.00     0          0          0          0
PRH06312         342.50     0          0          0          0
PRH06813         340.00     0          0          0          0
PRH07580         357.00     0          0          0          0
PNB00841         279.00     0          0          0          0
PNB01010         280.00     0          0          0          0
PNB01340         282.10     0          0          0          0
PSA00424         87.10      0          0          0          0
PSA00827         89.00      0          0          0          0
PSA01315         90.00      0          0          0          0