;; SWMM5 .inp converted from XPSWMM .xp file
;; Generated by XPSWMM Card Reader
;; Source format: XP_CARD | Original title: Wanjiazhai Res. to SM2 using modified pump curve for GM3, SM1, and SM2

[TITLE]
;;Project Title/Notes
Wanjiazhai Res. to SM2 using modified pump curve for GM3, SM1, and SM2

[OPTIONS]
FLOW_UNITS           CMS
INFILTRATION         HORTON
FLOW_ROUTING         DYNWAVE
LINK_OFFSETS         DEPTH
MIN_SLOPE            0.0
ALLOW_PONDING        NO
SKIP_STEADY_STATE    NO
ROUTING_STEP         00:00:02
VARIABLE_STEP        0.75
INERTIAL_DAMPING     PARTIAL
NORMAL_FLOW_LIMITED  BOTH
MAX_TRIALS           28
HEAD_TOLERANCE       .001

[JUNCTIONS]
;;Name           Elev       MaxDepth   InitDepth  SurDepth   Aponded
;;-------------- ---------- ---------- ---------- ---------- ----------
1                1020.00    0          4.65       0          0
2                1020.00    0          5.24       0          0
3                1020.00    0          5.84       0          0
4                1025.00    0          6.44       0          0
5                1025.00    0          8.63       0          0
6                1025.00    0          10.43      0          0
7                1025.00    0          12.22      0          0
8                1025.00    0          14.05      0          0
9                1025.00    0          15.82      0          0
10               1025.00    0          17.61      0          0
11               1025.00    0          19.41      0          0
12               1025.00    0          21.20      0          0
15               1125.00    0          0          0          0
16               1125.00    0          0          0          0
17               1125.00    0          0          0          0
18               1123.27    0          0          0          0
19               1123.37    0          0          0          0
20               1123.37    0          0          0          0
21               1123.37    0          0          0          0
22               1123.37    0          0          0          0
51               1250.00    0          0          0          0
168              1248.00    0          0          0          0
169              1248.00    0          0          0          0
170              1248.00    0          0          0          0
171              1248.00    0          0          0          0
172              1248.00    0          0          0          0
173              1248.00    0          0          0          0
174              1248.00    0          0          0          0
175              1248.00    0          0          0          0
176              1248.00    0          0          0          0
187              1248.00    0          0          0          0
189              1248.00    0          0          0          0
190              1248.00    0          0          0          0
191              1248.00    0          0          0          0
192              1248.00    0          0          0          0
193              1248.00    0          0          0          0
194              1248.00    0          0          0          0
195              1248.00    0          0          0          0
196              1248.00    0          0          0          0
197              1248.00    0          0          0          0
198              1248.00    0          0          0          0
199              1248.00    0          0          0          0
200              1248.00    0          0          0          0
201              1248.00    0          0          0          0
202              1248.00    0          0          0          0
203              1248.00    0          0          0          0
204              1248.00    0          0          0          0
205              1248.00    0          0          0          0
206              1248.00    0          0          0          0
207              1248.00    0          0          0          0
208              1248.00    0          0          0          0
209              1248.00    0          0          0          0
210              1248.00    0          0          0          0
211              1248.00    0          0          0          0
212              1248.00    0          0          0          0
213              1248.00    0          0          0          0
214              1248.00    0          0          0          0
215              1248.00    0          0          0          0
216              1248.00    0          0          0          0
217              1248.00    0          0          0          0
218              1248.00    0          0          0          0
219              1248.00    0          0          0          0
220              1248.00    0          0          0          0
221              1248.00    0          0          0          0
222              1248.00    0          0          0          0
223              1248.00    0          0          0          0
224              1248.00    0          0          0          0
225              1248.00    0          0          0          0
226              1248.00    0          0          0          0
227              1248.00    0          0          0          0
228              1248.00    0          0          0          0
229              1248.00    0          0          0          0
230              1248.00    0          0          0          0
231              1248.00    0          0          0          0
232              1248.00    0          0          0          0
233              1248.00    0          0          0          0
234              1248.00    0          0          0          0
235              1248.00    0          0          0          0
236              1248.00    0          0          0          0
285              1248.00    0          0          0          0
286              1248.00    0          0          0          0
287              1248.00    0          0          0          0
291              1248.00    0          0          0          0
292              1248.00    0          0          0          0
293              1248.00    0          0          0          0
294              1248.00    0          0          0          0
295              1248.00    0          0          0          0
296              1248.00    0          0          0          0
297              1248.00    0          0          0          0
298              1248.00    0          0          0          0
299              1248.00    0          0          0          0
300              1248.00    0          0          0          0
301              1248.00    0          0          0          0
304              1318.88    0          0          0          0
305              1318.88    0          0          0          0
306              1318.88    0          0          0          0
307              1318.88    0          0          0          0
308              1318.88    0          0          0          0
309              1318.88    0          0          0          0
310              1318.88    0          0          0          0
311              1318.88    0          0          0          0
312              1318.88    0          0          0          0
313              1318.88    0          0          0          0
314              1318.88    0          0          0          0
315              1318.88    0          0          0          0
316              1318.88    0          0          0          0
317              1318.88    0          0          0          0
318              1318.88    0          0          0          0
403              1318.88    0          0          0          0
404              1318.88    0          0          0          0
405              1318.88    0          0          0          0
406              1318.88    0          0          0          0
407              1318.88    0          0          0          0
410              1488.00    0          0          0          0
411              1488.00    0          0          0          0
412              1488.00    0          0          0          0
413              1488.00    0          0          0          0
414              1488.00    0          0          0          0
415              1488.00    0          0          0          0
416              1488.00    0          0          0          0
417              1488.00    0          0          0          0
418              1488.00    0          0          0          0
419              1488.00    0          0          0          0
420              1488.00    0          0          0          0
421              1488.00    0          0          0          0
422              1488.00    0          0          0          0
423              1488.00    0          0          0          0
424              1488.00    0          0          0          0
425              1488.00    0          0          0          0
426              1488.00    0          0          0          0
427              1488.00    0          0          0          0
428              1488.00    0          0          0          0
429              1488.00    0          0          0          0
430              1488.00    0          0          0          0
431              1488.00    0          0          0          0
432              1488.00    0          0          0          0
435              1668.00    0          0          0          0
436              1668.00    0          0          0          0
437              1668.00    0          0          0          0
438              1668.00    0          0          0          0
439              1668.00    0          0          0          0
440              1668.00    0          0          0          0
441              1668.00    0          0          0          0
442              1668.00    0          0          0          0
443              1668.00    0          0          0          0
444              1668.00    0          0          0          0
445              1668.00    0          0          0          0
446              1668.00    0          0          0          0
447              1668.00    0          0          0          0
448              1668.00    0          0          0          0
449              1668.00    0          0          0          0
450              1668.00    0          0          0          0
500              1668.00    0          0          0          0
501              1668.00    0          0          0          0
502              1668.00    0          0          0          0
68               1250.00    0          0          0          0
66               1250.00    0          0          0          0
69               1250.00    0          0          0          0

[STORAGE]
;;Name           Elev       MaxDepth   InitDepth  Shape      Curve/Params
;;-------------- ---------- ---------- ---------- ---------- ----------
13               1280.00    -299.20    23.00      FUNCTIONAL 113.10 0          0
14               1280.00    -156.73    0          FUNCTIONAL 113.10 0          0
23               1280.00    -140.76    0          FUNCTIONAL 113.10 0          0
46               1480.00    -222.00    0          FUNCTIONAL 0 0          0
49               1260.00    0          0          FUNCTIONAL 0 0          0
302              6410.00    0          0          FUNCTIONAL 660.00 0          0
303              6410.00    0          0          FUNCTIONAL 113.10 0          0
408              6488.00    0          0          FUNCTIONAL 310.00 0          0
409              6488.00    0          0          FUNCTIONAL 28.27 0          0
433              6688.00    0          0          FUNCTIONAL 468.00 0          0
434              6688.00    0          0          FUNCTIONAL 34.20 0          0

[CONDUITS]
;;Name           From             To               Length     Roughness  InOffset   OutOffset  InitFlow   MaxFlow
;;-------------- ---------------- ---------------- ---------- ---------- ---------- ---------- ---------- ----------
24               1                2                70.30      0.0140     948.35     947.76     0          0
25               2                3                70.45      0.0140     947.76     947.16     0          0
26               3                4                70.45      0.0140     947.16     946.56     0          0
27               4                5                122.00     0.0140     946.56     944.37     0          0
28               5                6                100.00     0.0140     944.37     942.57     0          0
29               6                7                100.00     0.0140     942.57     940.78     0          0
30               7                8                100.00     0.0140     940.78     938.98     0          0
31               8                9                100.00     0.0140     938.98     937.18     0          0
32               9                10               100.00     0.0140     937.18     935.39     0          0
33               10               11               100.00     0.0140     935.39     933.59     0          0
34               11               12               100.00     0.0140     933.59     931.80     0          0
35               12               13               100.00     0.0140     931.80     930.00     0          0
37               14               15               209.81     0.0140     1077.40    1075.71    0          0
38               15               16               209.81     0.0140     1075.71    1074.02    0          0
39               16               17               209.81     0.0140     1074.02    1072.33    0          0
40               17               18               209.81     0.0140     1072.33    1070.64    0          0
41               18               19               209.81     0.0140     1070.64    1068.95    0          0
42               19               20               209.81     0.0140     1068.95    1067.27    0          0
43               20               21               209.81     0.0140     1067.27    1065.58    0          0
44               21               22               209.81     0.0140     1065.58    1063.89    0          0
45               22               23               209.81     0.0140     1063.89    1062.20    0          0
STZ-Res          46               49               91.00      0.0014     1235.71    1235.70    0          0
179              168              169              400.00     0.0140     1234.56    1234.30    0          0
180              169              170              400.00     0.0140     1234.30    1234.03    0          0
181              170              171              400.00     0.0140     1234.03    1233.77    0          0
182              171              172              400.00     0.0140     1233.77    1233.50    0          0
183              172              173              400.00     0.0140     1233.50    1233.23    0          0
184              173              174              400.00     0.0140     1233.23    1232.97    0          0
185              174              175              400.00     0.0140     1232.97    1232.70    0          0
186              175              176              400.00     0.0140     1232.70    1232.44    0          0
188              176              187              400.00     0.0140     1232.44    1232.17    0          0
237              187              189              400.00     0.0140     1232.17    1231.90    0          0
238              189              190              400.00     0.0140     1231.90    1231.64    0          0
239              190              191              400.00     0.0140     1231.64    1231.37    0          0
240              191              192              400.00     0.0140     1231.37    1231.11    0          0
241              192              193              400.00     0.0140     1231.11    1230.84    0          0
242              193              194              400.00     0.0140     1230.84    1230.58    0          0
243              194              195              424.00     0.0140     1230.58    1230.29    0          0
244              195              196              400.00     0.0140     1230.29    1230.03    0          0
245              196              197              400.00     0.0140     1230.03    1229.76    0          0
246              197              198              400.00     0.0140     1229.76    1229.49    0          0
247              198              199              400.00     0.0140     1229.49    1229.23    0          0
248              199              200              400.00     0.0140     1229.23    1228.96    0          0
249              200              201              400.00     0.0140     1228.96    1228.70    0          0
250              201              202              434.00     0.0140     1228.70    1228.41    0          0
251              202              203              500.00     0.0140     1228.41    1228.08    0          0
252              203              204              500.00     0.0140     1228.08    1227.74    0          0
253              204              205              500.00     0.0140     1227.74    1227.41    0          0
254              205              206              500.00     0.0140     1227.41    1227.08    0          0
255              206              207              500.00     0.0140     1227.08    1226.74    0          0
256              207              208              500.00     0.0140     1226.74    1226.41    0          0
257              208              209              500.00     0.0140     1226.41    1226.08    0          0
258              209              210              500.00     0.0140     1226.08    1225.74    0          0
259              210              211              500.00     0.0140     1225.74    1225.41    0          0
260              211              212              500.00     0.0140     1225.41    1225.08    0          0
261              212              213              500.00     0.0140     1225.08    1224.74    0          0
262              213              214              500.00     0.0140     1224.74    1224.41    0          0
263              214              215              500.00     0.0140     1224.41    1224.08    0          0
264              215              216              500.00     0.0140     1224.08    1223.75    0          0
265              216              217              500.00     0.0140     1223.75    1223.41    0          0
266              217              218              500.00     0.0140     1223.41    1223.08    0          0
267              218              219              500.00     0.0140     1223.08    1222.75    0          0
268              219              220              500.00     0.0140     1222.75    1222.41    0          0
269              220              221              500.00     0.0140     1222.41    1222.08    0          0
270              221              222              500.00     0.0140     1222.08    1221.75    0          0
271              222              223              500.00     0.0140     1221.75    1221.41    0          0
272              223              224              500.00     0.0140     1221.41    1221.08    0          0
273              224              225              500.00     0.0140     1221.08    1220.75    0          0
274              225              226              500.00     0.0140     1220.75    1220.42    0          0
275              226              227              609.00     0.0140     1220.42    1220.01    0          0
276              227              228              500.00     0.0140     1220.01    1219.68    0          0
277              228              229              500.00     0.0140     1219.68    1219.34    0          0
278              229              230              500.00     0.0140     1219.34    1219.01    0          0
279              230              231              500.00     0.0140     1219.01    1218.68    0          0
280              231              232              500.00     0.0140     1218.68    1218.35    0          0
281              232              233              500.00     0.0140     1218.35    1218.01    0          0
282              233              234              324.97     0.0140     1218.01    1217.80    0          0
283              234              235              300.00     0.0140     1217.80    1217.60    0          0
284              235              236              300.00     0.0140     1217.60    1217.40    0          0
288              236              285              300.00     0.0140     1217.40    1217.20    0          0
289              285              286              300.00     0.0140     1217.20    1217.00    0          0
290              286              287              300.00     0.0140     1217.00    1216.80    0          0
320              287              291              300.00     0.0140     1216.80    1216.60    0          0
321              291              292              205.00     0.0140     1216.60    1216.46    0          0
322              292              293              205.00     0.0140     1216.46    1216.32    0          0
323              293              294              205.00     0.0140     1216.32    1216.19    0          0
324              294              295              205.00     0.0140     1216.19    1216.05    0          0
325              295              296              205.00     0.0140     1216.05    1215.92    0          0
326              296              297              205.00     0.0140     1215.92    1215.78    0          0
327              297              298              205.00     0.0140     1215.78    1215.64    0          0
328              298              299              205.00     0.0140     1215.64    1215.51    0          0
329              299              300              205.00     0.0140     1215.51    1215.37    0          0
330              300              301              205.00     0.0140     1215.37    1215.24    0          0
331              301              302              205.00     0.0140     1215.24    1215.10    0          0
333              303              304              667.00     0.0140     1288.96    1288.52    0          0
334              304              305              667.00     0.0140     1288.52    1288.07    0          0
335              305              306              667.00     0.0140     1288.07    1287.63    0          0
336              306              307              667.00     0.0140     1287.63    1287.09    0          0
337              307              308              667.00     0.0140     1287.09    1286.65    0          0
338              308              309              667.00     0.0140     1286.65    1286.20    0          0
339              309              310              667.00     0.0140     1286.20    1285.76    0          0
340              310              311              667.00     0.0140     1285.76    1285.31    0          0
341              311              312              667.00     0.0140     1285.32    1284.87    0          0
342              312              313              667.00     0.0140     1284.87    1284.43    0          0
343              313              314              667.00     0.0140     1284.43    1283.98    0          0
344              314              315              667.00     0.0140     1283.98    1283.54    0          0
345              315              316              667.00     0.0140     1283.54    1283.09    0          0
346              316              317              667.00     0.0140     1283.09    1282.65    0          0
347              317              318              667.00     0.0140     1282.65    1282.20    0          0
452              318              403              30.00      0.0140     1282.20    1283.08    0          0
453              403              404              292.00     0.0140     1283.08    1282.89    0          0
454              404              405              292.00     0.0140     1282.89    1282.69    0          0
455              405              406              292.00     0.0140     1282.69    1282.50    0          0
456              406              407              322.00     0.0140     1282.50    1282.28    0          0
457              407              408              322.00     0.0140     1282.28    1282.07    0          0
459              409              410              312.17     0.0140     1419.19    1418.98    0          0
460              410              411              312.17     0.0140     1418.98    1418.77    0          0
461              411              412              312.17     0.0140     1418.77    1418.57    0          0
462              412              413              312.17     0.0140     1418.57    1418.36    0          0
463              413              414              312.17     0.0140     1418.36    1418.15    0          0
464              414              415              312.17     0.0140     1418.15    1417.94    0          0
465              415              416              269.00     0.0140     1417.94    1417.76    0          0
466              416              417              326.77     0.0140     1417.76    1417.54    0          0
467              417              418              326.77     0.0140     1417.54    1417.32    0          0
468              418              419              326.77     0.0140     1417.32    1417.11    0          0
469              419              420              326.77     0.0140     1417.11    1416.89    0          0
470              420              421              326.77     0.0140     1416.89    1416.67    0          0
471              421              422              326.77     0.0140     1416.67    1416.45    0          0
472              422              423              326.77     0.0140     1416.45    1416.23    0          0
473              423              424              326.77     0.0140     1416.23    1416.02    0          0
474              424              425              326.77     0.0140     1416.02    1415.80    0          0
475              425              426              326.77     0.0140     1415.80    1415.58    0          0
476              426              427              200.00     0.0140     1415.58    1415.45    0          0
477              427              428              200.00     0.0140     1415.45    1415.31    0          0
478              428              429              200.00     0.0140     1415.31    1415.18    0          0
479              429              430              100.00     0.0140     1415.18    1415.11    0          0
480              430              431              60.00      0.0140     1415.11    1415.07    0          0
481              431              432              60.00      0.0140     1415.07    1415.03    0          0
482              432              433              58.60      0.0140     1410.05    1410.00    0          0
484              434              435              200.00     0.0140     1551.26    1551.13    0          0
485              435              436              200.00     0.0140     1551.13    1551.00    0          0
486              436              437              200.00     0.0140     1551.00    1550.86    0          0
487              437              438              200.00     0.0140     1550.86    1550.73    0          0
488              438              439              400.00     0.0140     1550.73    1550.46    0          0
489              439              440              400.00     0.0140     1550.46    1550.19    0          0
490              440              441              400.00     0.0140     1550.19    1549.93    0          0
491              441              442              400.00     0.0140     1549.93    1549.66    0          0
492              442              443              400.00     0.0140     1549.66    1549.39    0          0
493              443              444              400.00     0.0140     1549.39    1549.13    0          0
494              444              445              400.00     0.0140     1549.13    1548.86    0          0
495              445              446              400.00     0.0140     1548.86    1548.59    0          0
496              446              447              400.00     0.0140     1548.59    1548.33    0          0
497              447              448              400.00     0.0140     1548.33    1548.06    0          0
498              448              449              400.00     0.0140     1548.06    1547.79    0          0
499              449              450              400.00     0.0140     1547.79    1547.53    0          0
503              450              500              400.00     0.0140     1547.53    1547.26    0          0
504              500              501              400.00     0.0140     1547.26    1546.99    0          0
505              501              502              400.00     0.0140     1546.99    1546.73    0          0
67               66               68               200.00     0.0140     1234.96    1234.88    0          0
70               68               69               398.71     0.0140     1234.88    1234.72    0          0
71               69               168              398.71     0.0140     1234.72    1234.56    0          0
65               51               66               85.60      0.0140     1235.70    1234.96    0          0

[WEIRS]
;;Name           From             To               Type       CrestHt    Qcoeff     Gated    EndCon   EndCoeff   Surcharge
;;-------------- ---------------- ---------------- ---------- ---------- ---------- -------- -------- ---------- ----------
STZ-OutG         49               51               TRANSVERSE 0          1.840      NO       0        0          YES

[PUMPS]