;; SWMM5 .inp converted from XPSWMM .xp file
;; Generated by XPSWMM Card Reader
;; Source format: XP_CARD | Original title: WANAMAKER BASIN

[TITLE]
;;Project Title/Notes
WANAMAKER BASIN

[OPTIONS]
FLOW_UNITS           CFS
INFILTRATION         HORTON
FLOW_ROUTING         DYNWAVE
LINK_OFFSETS         DEPTH
MIN_SLOPE            0.0
ALLOW_PONDING        NO
SKIP_STEADY_STATE    NO
INERTIAL_DAMPING     PARTIAL
NORMAL_FLOW_LIMITED  BOTH

[JUNCTIONS]
;;Name           Elev       MaxDepth   InitDepth  SurDepth   Aponded
;;-------------- ---------- ---------- ---------- ---------- ----------
212              0          0          0          0          0
200              0          0          0          0          0
188              0          0          0          0          0
181              0          0          0          0          0
171              0          0          0          0          0
166              0          0          0          0          0
155              0          0          0          0          0
146              0          0          0          0          0
141              0          0          0          0          0
125              0          0          0          0          0
117              0          0          0          0          0
111              0          0          0          0          0
100              0          0          0          0          0
336              0          0          0          0          0
315              0          0          0          0          0
306              0          0          0          0          0
620              0          0          0          0          0
428              0          0          0          0          0
503              0          0          0          0          0

[CONDUITS]
;;Name           From             To               Length     Roughness  InOffset   OutOffset  InitFlow   MaxFlow
;;-------------- ---------------- ---------------- ---------- ---------- ---------- ---------- ---------- ----------
220              ?                ?                0          0          0          0          0          0
221              ?                ?                0          0          0          0          0          0
222              ?                ?                0          0          0          0          0          0
223              ?                ?                0          0          0          0          0          0
224              ?                ?                0          0          0          0          0          0
225              ?                ?                0          0          0          0          0          0
226              ?                ?                0          0          0          0          0          0
227              ?                ?                0          0          0          0          0          0
228              ?                ?                0          0          0          0          0          0
229              ?                ?                0          0          0          0          0          0
230              ?                ?                0          0          0          0          0          0
231              ?                ?                0          0          0          0          0          0
232              ?                ?                0          0          0          0          0          0
233              ?                ?                0          0          0          0          0          0
234              ?                ?                0          0          0          0          0          0
235              ?                ?                0          0          0          0          0          0
236              ?                ?                0          0          0          0          0          0
237              ?                ?                0          0          0          0          0          0

[XSECTIONS]
;;Link           Shape        Geom1      Geom2      Geom3      Geom4      Barrels
;;-------------- ------------ ---------- ---------- ---------- ---------- ----------
220              CIRCULAR     0          0          0          0          1
221              CIRCULAR     0          0          0          0          1
222              CIRCULAR     0          0          0          0          1
223              CIRCULAR     0          0          0          0          1
224              CIRCULAR     0          0          0          0          1
225              CIRCULAR     0          0          0          0          1
226              CIRCULAR     0          0          0          0          1
227              CIRCULAR     0          0          0          0          1
228              CIRCULAR     0          0          0          0          1
229              CIRCULAR     0          0          0          0          1
230              CIRCULAR     0          0          0          0          1
231              CIRCULAR     0          0          0          0          1
232              CIRCULAR     0          0          0          0          1
233              CIRCULAR     0          0          0          0          1
234              CIRCULAR     0          0          0          0          1
235              CIRCULAR     0          0          0          0          1
236              CIRCULAR     0          0          0          0          1
237              CIRCULAR     0          0          0          0          1

[LOSSES]
;;Link           Inlet      Outlet     Average    Flap Gate
;;-------------- ---------- ---------- ---------- ----------
220              0          0          0          NO
221              0          0          0          NO
222              0          0          0          NO
223              0          0          0          NO
224              0          0          0          NO
225              0          0          0          NO
226              0          0          0          NO
227              0          0          0          NO
228              0          0          0          NO
229              0          0          0          NO
230              0          0          0          NO
231              0          0          0          NO
232              0          0          0          NO
233              0          0          0          NO
234              0          0          0          NO
235              0          0          0          NO
236              0          0          0          NO
237              0          0          0          NO

[COORDINATES]
;;Node           X-Coord            Y-Coord
;;-------------- ------------------ ------------------
212              336.80             -8.94             
200              353.57             -6.40             
188              377.91             -1.23             
181              392.42             -4.33             
171              414.39             1.91              
166              432.91             -6.66             
155              457.47             0.42              
146              484.05             -4.94             
141              339.43             12.25             
125              362.05             12.99             
117              378.36             24.09             
111              404.18             12.62             
100              419.26             11.16             
336              436.70             18.06             
315              456.23             18.99             
306              475.49             13.24             
620              339.60             36.99             
428              356.22             31.80             
503              373.65             41.38             

[MAP]
DIMENSIONS 336.80 -8.94 484.05 41.38
Units      None

[REPORT]
INPUT            YES
SUBCATCHMENTS    ALL
NODES            ALL
LINKS            ALL



