;; SWMM5 .inp converted from XPSWMM .xp file
;; Generated by XPSWMM Card Reader
;; Source format: XP_CARD | Original title: (none)

[TITLE]
;;Project Title/Notes
Converted from XPSWMM .xp file

[OPTIONS]
FLOW_UNITS           CFS
INFILTRATION         HORTON
FLOW_ROUTING         DYNWAVE
LINK_OFFSETS         DEPTH
MIN_SLOPE            0.0
ALLOW_PONDING        NO
SKIP_STEADY_STATE    NO
INERTIAL_DAMPING     PARTIAL
NORMAL_FLOW_LIMITED  BOTH

[JUNCTIONS]
;;Name           Elev       MaxDepth   InitDepth  SurDepth   Aponded
;;-------------- ---------- ---------- ---------- ---------- ----------
C04W0250         728.08     0          0          0          0
C05W0253         727.40     0          0          0          0
C05W0255         726.94     0          0          0          0
C05W0257         728.08     0          0          0          0
C05W0260         729.23     0          0          0          0
D04W0245         725.16     0          0          0          0
D06W0215         731.86     0          0          0          0
D06W0220         732.80     0          0          0          0
D06W0225         731.32     0          0          0          0
E04W0240         723.03     0          0          0          0
E06W0195         729.41     0          0          0          0
E06W0200         729.67     0          0          0          0
E06W0205         728.87     0          0          0          0
F03W0115         709.53     0          0          0          0
F03W0120         713.88     0          0          0          0
F03W0125         710.93     0          0          0          0
F04W0130         709.93     0          0          0          0
F04W0230         720.28     0          0          0          0
F04W0235         722.18     0          0          0          0
F05W0170         713.19     0          0          0          0
F05W0175         717.44     0          0          0          0
F06W0178         717.88     0          0          0          0
F06W0180         718.21     0          0          0          0
F06W0188         726.16     0          0          0          0
F06W0190         727.29     0          0          0          0
G03W0090         710.40     0          0          0          0
G03W0095         710.17     0          0          0          0
G03W0100         709.58     0          0          0          0
G03W0105         709.74     0          0          0          0
G03W0110         709.74     0          0          0          0
G04W0135         710.14     0          0          0          0
G04W0140         710.21     0          0          0          0
G04W0145         713.06     0          0          0          0
G04W0150         710.04     0          0          0          0
G05W0155         709.96     0          0          0          0
G05W0160         709.91     0          0          0          0
G05W0165         713.02     0          0          0          0

[CONDUITS]
;;Name           From             To               Length     Roughness  InOffset   OutOffset  InitFlow   MaxFlow
;;-------------- ---------------- ---------------- ---------- ---------- ---------- ---------- ---------- ----------
02500245         C04W0250         D04W0245         900.00     0.0130     712.48     710.74     0          0
02530250         C05W0253         C04W0250         980.00     0.0130     720.08     713.58     0          0
02550253         C05W0255         C05W0253         341.00     0.0130     721.81     720.08     0          0
02570255         C05W0257         C05W0255         150.00     0.0130     722.28     721.81     0          0
02600257         C05W0260         C05W0257         240.00     0.0130     723.11     722.28     0          0
02450240         D04W0245         E04W0240         750.00     0.0130     710.64     710.15     0          0
02150205         D06W0215         E06W0205         560.00     0.0130     724.86     719.77     0          0
02200215         D06W0220         D06W0215         430.00     0.0130     726.78     724.86     0          0
02250220         D06W0225         D06W0220         150.00     0.0130     728.08     726.78     0          0
02400235         E04W0240         F04W0235         660.00     0.0130     709.49     707.96     0          0
01950190         E06W0195         F06W0190         240.00     0.0130     719.11     716.84     0          0
02050195         E06W0205         E06W0195         70.00      0.0130     719.87     719.11     0          0
01150110         F03W0115         G03W0110         10.00      0.0130     703.64     703.58     0          0
01200115         F03W0120         F03W0115         260.00     0.0130     703.90     703.64     0          0
01250120         F03W0125         F03W0120         270.00     0.0130     704.11     703.95     0          0
01300125         F04W0130         F03W0125         320.00     0.0130     704.46     704.14     0          0
02300125         F04W0230         F03W0125         280.00     0.0130     707.18     705.93     0          0
02350230         F04W0235         F04W0230         290.00     0.0130     707.77     707.18     0          0
01700165         F05W0170         G05W0165         350.00     0.0130     707.95     707.23     0          0
01750170         F05W0175         F05W0170         330.00     0.0130     710.04     708.16     0          0
01780175         F06W0178         F05W0175         300.00     0.0130     714.51     710.08     0          0
01800178         F06W0180         F06W0178         230.00     0.0130     715.23     714.46     0          0
01880180         F06W0188         F06W0180         320.00     0.0130     715.34     715.27     0          0
01900188         F06W0190         F06W0188         150.00     0.0130     716.53     715.37     0          0
00950090         G03W0095         G03W0090         10.00      0.0130     703.92     703.83     0          0
01000095         G03W0100         G03W0095         30.00      0.0130     703.96     703.92     0          0
01050100         G03W0105         G03W0100         10.00      0.0130     703.60     703.96     0          0
01100105         G03W0110         G03W0105         10.00      0.0130     703.65     703.60     0          0
01350130         G04W0135         F04W0130         290.00     0.0130     704.90     704.46     0          0
01400135         G04W0140         G04W0135         150.00     0.0130     705.03     704.92     0          0
01450140         G04W0145         G04W0140         160.00     0.0130     705.69     705.07     0          0
01500145         G04W0150         G04W0145         360.00     0.0130     705.99     705.46     0          0
01550150         G05W0155         G04W0150         120.00     0.0130     706.19     705.99     0          0
01600155         G05W0160         G05W0155         270.00     0.0130     706.12     706.19     0          0
01650160         G05W0165         G05W0160         230.00     0.0130     706.66     706.12     0          0

[XSECTIONS]
;;Link           Shape        Geom1      Geom2      Geom3      Geom4      Barrels
;;-------------- ------------ ---------- ---------- ---------- ---------- ----------
02500245         CIRCULAR     1.25       0          0          0          1
02530250         CIRCULAR     0.83       0          0          0          1
02550253         CIRCULAR     0.83       0          0          0          1
02570255         CIRCULAR     0.83       0          0          0          1
02600257         CIRCULAR     0.83       0          0          0          1
02450240         CIRCULAR     1.25       0          0          0          1
02150205         CIRCULAR     0.83       0          0          0          1
02200215         CIRCULAR     0.83       0          0          0          1
02250220         CIRCULAR     0.83       0          0          0          1
02400235         CIRCULAR     1.50       0          0          0          1
01950190         CIRCULAR     1.00       0          0          0          1
02050195         CIRCULAR     0.83       0          0          0          1
01150110         CIRCULAR     2.50       0          0          0          1
01200115         CIRCULAR     2.50       0          0          0          1
01250120         CIRCULAR     2.50       0          0          0          1
01300125         CIRCULAR     2.50       0          0          0          1
02300125         CIRCULAR     1.50       0          0          0          1
02350230         CIRCULAR     1.50       0          0          0          1
01700165         CIRCULAR     1.25       0          0          0          1
01750170         CIRCULAR     0.83       0          0          0          1
01780175         CIRCULAR     0.83       0          0          0          1
01800178         CIRCULAR     0.83       0          0          0          1
01880180         CIRCULAR     0.83       0          0          0          1
01900188         CIRCULAR     0.83       0          0          0          1
00950090         CIRCULAR     2.00       0          0          0          1
01000095         CIRCULAR     2.00       0          0          0          1
01050100         CIRCULAR     2.00       0          0          0          1
01100105         CIRCULAR     2.00       0          0          0          1
01350130         CIRCULAR     2.50       0          0          0          1
01400135         CIRCULAR     2.50       0          0          0          1
01450140         CIRCULAR     2.50       0          0          0          1
01500145         CIRCULAR     2.50       0          0          0          1
01550150         CIRCULAR     2.50       0          0          0          1
01600155         CIRCULAR     2.50       0          0          0          1
01650160         CIRCULAR     2.25       0          0          0          1

[LOSSES]
;;Link           Inlet      Outlet     Average    Flap Gate
;;-------------- ---------- ---------- ---------- ----------
02500245         0          0          0          NO
02530250         0          0          0          NO
02550253         0          0          0          NO
02570255         0          0          0          NO
02600257         0          0          0          NO
02450240         0          0          0          NO
02150205         0          0          0          NO
02200215         0          0          0          NO
02250220         0          0          0          NO
02400235         0          0          0          NO
01950190         0          0          0          NO
02050195         0          0          0          NO
01150110         0          0          0          NO
01200115         0          0          0          NO
01250120         0          0          0          NO
01300125         0          0          0          NO
02300125         0          0          0          NO
02350230         0          0          0          NO
01700165         0          0          0          NO
01750170         0          0          0          NO
01780175         0          0          0          NO
01800178         0          0          0          NO
01880180         0          0          0          NO
01900188         0          0          0          NO
00950090         0          0          0          NO
01000095         0          0          0          NO
01050100         0          0          0          NO
01100105         0          0          0          NO
01350130         0          0          0          NO
01400135         0          0          0          NO
01450140         0          0          0          NO
01500145         0          0          0          NO
01550150         0          0          0          NO
01600155         0          0          0          NO
01650160         0          0          0          NO

[COORDINATES]
;;Node           X-Coord            Y-Coord
;;-------------- ------------------ ------------------
C04W0250         -27.35             -472.72           
C05W0253         -26.50             -351.50           
C05W0255         -27.35             -236.81           
C05W0257         -24.50             -126.50           
C05W0260         -23.48             -51.18            
D04W0245         12.61              -467.57           
D06W0215         182.72             178.66            
D06W0220         162.41             178.34            
D06W0225         122.72             178.66            
E04W0240         38.39              -461.12           
E06W0195         262.03             152.82            
E06W0200         254.27             167.63            
E06W0205         248.19             175.49            
F03W0115         207.63             -821.12           
F03W0120         164.32             -657.25           
F03W0125         200.61             -522.65           
F04W0130         236.31             -451.85           
F04W0230         135.08             -506.24           
F04W0235         82.22              -494.64           
F05W0170         331.52             -1.47             
F05W0175         327.10             32.98             
F06W0178         325.50             48.50             
F06W0180         324.45             64.78             
F06W0188         298.50             98.50             
F06W0190         279.40             152.82            
G03W0090         267.73             -986.50           
G03W0095         273.30             -938.67           
G03W0100         254.56             -896.41           
G03W0105         244.55             -839.68           
G03W0110         233.43             -821.89           
G04W0135         279.04             -417.32           
G04W0140         286.65             -340.65           
G04W0145         289.57             -267.49           
G04W0150         286.06             -238.82           
G05W0155         288.40             -184.91           
G05W0160         305.96             -153.31           
G05W0165         343.30             -25.32            

[MAP]
DIMENSIONS -27.35 -986.50 343.30 178.66
Units      None

[REPORT]
INPUT            YES
SUBCATCHMENTS    ALL
NODES            ALL
LINKS            ALL



