;; SWMM5 .inp converted from XPSWMM .xp file
;; Generated by XPSWMM Card Reader
;; Source format: XP_CARD | Original title: (none)

[TITLE]
;;Project Title/Notes
Converted from XPSWMM .xp file

[OPTIONS]
FLOW_UNITS           CFS
INFILTRATION         HORTON
FLOW_ROUTING         DYNWAVE
LINK_OFFSETS         DEPTH
MIN_SLOPE            0.0
ALLOW_PONDING        NO
SKIP_STEADY_STATE    NO
INERTIAL_DAMPING     PARTIAL
NORMAL_FLOW_LIMITED  BOTH

[JUNCTIONS]
;;Name           Elev       MaxDepth   InitDepth  SurDepth   Aponded
;;-------------- ---------- ---------- ---------- ---------- ----------
6000             0          0          0          0          0
6010             0          0          0          0          0
6040             0          0          0          0          0
6045             0          0          0          0          0
6070             0          0          0          0          0
6060             0          0          0          0          0
6055             0          0          0          0          0
6030             0          0          0          0          0
6125             0          0          0          0          0
6215             0          0          0          0          0
7005             0          0          0          0          0
7010             0          0          0          0          0
7015             0          0          0          0          0
7020             0          0          0          0          0
7035             0          0          0          0          0
7050             0          0          0          0          0
GPS              0          0          0          0          0
7040             0          0          0          0          0
4140             0          0          0          0          0
4136             0          0          0          0          0
4137             0          0          0          0          0
4138             0          0          0          0          0
4230             0          0          0          0          0
4235             0          0          0          0          0
4245             0          0          0          0          0
4750             0          0          0          0          0
4735             0          0          0          0          0
4575             0          0          0          0          0
4580             0          0          0          0          0
4585             0          0          0          0          0
4595             0          0          0          0          0
4600             0          0          0          0          0
4605             0          0          0          0          0
4615             0          0          0          0          0
3145             0          0          0          0          0
3140             0          0          0          0          0
3190             0          0          0          0          0
3265             0          0          0          0          0
3060             0          0          0          0          0
3065             0          0          0          0          0
3075             0          0          0          0          0
3080             0          0          0          0          0
3085             0          0          0          0          0
3090             0          0          0          0          0
3105             0          0          0          0          0
3115             0          0          0          0          0
3120             0          0          0          0          0
3121             0          0          0          0          0
3125             0          0          0          0          0
3135             0          0          0          0          0
4532             0          0          0          0          0
4530             0          0          0          0          0
4540             0          0          0          0          0
4550             0          0          0          0          0
4551             0          0          0          0          0
4555             0          0          0          0          0
4560             0          0          0          0          0
4565             0          0          0          0          0
4375             0          0          0          0          0
3705             0          0          0          0          0
3690             0          0          0          0          0
3550             0          0          0          0          0
3555             0          0          0          0          0
3560             0          0          0          0          0
3565             0          0          0          0          0
3201             0          0          0          0          0
3225             0          0          0          0          0
3230             0          0          0          0          0
3010             0          0          0          0          0
2165             0          0          0          0          0
760              0          0          0          0          0
755              0          0          0          0          0
770              0          0          0          0          0
MH               0          0          0          0          0
2970             0          0          0          0          0
3005             0          0          0          0          0
3195             0          0          0          0          0
3696             0          0          0          0          0
3695             0          0          0          0          0
1280             0          0          0          0          0
1282             0          0          0          0          0
1185             0          0          0          0          0
2190             0          0          0          0          0
1230             0          0          0          0          0
1225             0          0          0          0          0
1220             0          0          0          0          0
1215             0          0          0          0          0
1200             0          0          0          0          0
1210             0          0          0          0          0
1235             0          0          0          0          0
1255             0          0          0          0          0
4800             0          0          0          0          0
4845             0          0          0          0          0
4850             0          0          0          0          0
4855             0          0          0          0          0
4860             0          0          0          0          0
4835             0          0          0          0          0
4810             0          0          0          0          0
2116             0          0          0          0          0
4720             0          0          0          0          0
4730             0          0          0          0          0
4725             0          0          0          0          0
1750             0          0          0          0          0
1710             0          0          0          0          0
1705             0          0          0          0          0
1275             0          0          0          0          0
1560             0          0          0          0          0
1545             0          0          0          0          0
1540             0          0          0          0          0
1530             0          0          0          0          0
1525             0          0          0          0          0
1526             0          0          0          0          0
1325             0          0          0          0          0
1320             0          0          0          0          0
1365             0          0          0          0          0
1370             0          0          0          0          0
1375             0          0          0          0          0
1376             0          0          0          0          0
1860             0          0          0          0          0
1875             0          0          0          0          0
1885             0          0          0          0          0
1890             0          0          0          0          0
1895             0          0          0          0          0
1900             0          0          0          0          0
(GPS)            0          0          0          0          0
140              0          0          0          0          0
265              0          0          0          0          0
270              0          0          0          0          0
245              0          0          0          0          0
280              0          0          0          0          0
310              0          0          0          0          0
110              0          0          0          0          0
115              0          0          0          0          0
135              0          0          0          0          0
348              0          0          0          0          0
560              0          0          0          0          0
690              0          0          0          0          0
740              0          0          0          0          0
790              0          0          0          0          0
785              0          0          0          0          0
800              0          0          0          0          0
210              0          0          0          0          0
190              0          0          0          0          0
185              0          0          0          0          0
170              0          0          0          0          0
165              0          0          0          0          0
180              0          0          0          0          0
195              0          0          0          0          0
205              0          0          0          0          0
235              0          0          0          0          0
590              0          0          0          0          0
966              0          0          0          0          0
935              0          0          0          0          0
880              0          0          0          0          0
875              0          0          0          0          0
855              0          0          0          0          0
860              0          0          0          0          0
865              0          0          0          0          0
1905             0          0          0          0          0
2026             0          0          0          0          0
3571             0          0          0          0          0
3570             0          0          0          0          0
3572             0          0          0          0          0
3573             0          0          0          0          0
3574             0          0          0          0          0
4478             0          0          0          0          0
4477             0          0          0          0          0
4476             0          0          0          0          0
5570             0          0          0          0          0
5575             0          0          0          0          0
5845             0          0          0          0          0
5569             0          0          0          0          0
5568             0          0          0          0          0
5566             0          0          0          0          0
5567             0          0          0          0          0
5561             0          0          0          0          0
5562             0          0          0          0          0
5560             0          0          0          0          0
5564             0          0          0          0          0
5563             0          0          0          0          0
5555             0          0          0          0          0
5540             0          0          0          0          0
5535             0          0          0          0          0
5295             0          0          0          0          0
5250             0          0          0          0          0
5235             0          0          0          0          0
5245             0          0          0          0          0
5225             0          0          0          0          0
5220             0          0          0          0          0
5240             0          0          0          0          0
5215             0          0          0          0          0
5210             0          0          0          0          0
5205             0          0          0          0          0
5200             0          0          0          0          0
5230             0          0          0          0          0
5195             0          0          0          0          0
5330             0          0          0          0          0
5170             0          0          0          0          0
5090             0          0          0          0          0
5080             0          0          0          0          0
5020             0          0          0          0          0
MANHOLE          0          0          0          0          0
4475             0          0          0          0          0
1720             0          0          0          0          0
1690             0          0          0          0          0
1695             0          0          0          0          0
1700             0          0          0          0          0
1824             0          0          0          0          0
1985             0          0          0          0          0
1981             0          0          0          0          0
1980             0          0          0          0          0
1975             0          0          0          0          0
2085             0          0          0          0          0
2090             0          0          0          0          0
2065             0          0          0          0          0
2095             0          0          0          0          0
2205             0          0          0          0          0
2210             0          0          0          0          0
2310             0          0          0          0          0
2212             0          0          0          0          0
2960             0          0          0          0          0
2311             0          0          0          0          0
2905             0          0          0          0          0
2901             0          0          0          0          0
2900             0          0          0          0          0
2350             0          0          0          0          0
2355             0          0          0          0          0
2360             0          0          0          0          0
2690             0          0          0          0          0
2721             0          0          0          0          0
2730             0          0          0          0          0
720              0          0          0          0          0
2480             0          0          0          0          0
3535             0          0          0          0          0
3540             0          0          0          0          0
3410             0          0          0          0          0
3411             0          0          0          0          0
3350             0          0          0          0          0
3360             0          0          0          0          0
P.K.             0          0          0          0          0
5695             0          0          0          0          0
5710             0          0          0          0          0
5725             0          0          0          0          0
5755             0          0          0          0          0
5760             0          0          0          0          0
5745             0          0          0          0          0
5910             0          0          0          0          0
3520             0          0          0          0          0
3870             0          0          0          0          0
4840             0          0          0          0          0
4790             0          0          0          0          0
4770             0          0          0          0          0
4765             0          0          0          0          0
4815             0          0          0          0          0
4805             0          0          0          0          0
4705             0          0          0          0          0
4710             0          0          0          0          0
4795             0          0          0          0          0
4785             0          0          0          0          0
STA.             0          0          0          0          0
4660             0          0          0          0          0
4665             0          0          0          0          0
4681             0          0          0          0          0
4655             0          0          0          0          0
4650             0          0          0          0          0
4645             0          0          0          0          0
4640             0          0          0          0          0
4636             0          0          0          0          0
2309             0          0          0          0          0
4695             0          0          0          0          0
4690             0          0          0          0          0
4675             0          0          0          0          0
4872             0          0          0          0          0
4670             0          0          0          0          0
4871             0          0          0          0          0
4642             0          0          0          0          0
4870             0          0          0          0          0
4641             0          0          0          0          0
4875             0          0          0          0          0
4891             0          0          0          0          0
4880             0          0          0          0          0
4881             0          0          0          0          0
4890             0          0          0          0          0
4895             0          0          0          0          0
4635             0          0          0          0          0
4630             0          0          0          0          0
4620             0          0          0          0          0
5750             0          0          0          0          0
5740             0          0          0          0          0
5735             0          0          0          0          0
5975             0          0          0          0          0
5905             0          0          0          0          0
5900             0          0          0          0          0
5895             0          0          0          0          0
5770             0          0          0          0          0
5765             0          0          0          0          0
2338             0          0          0          0          0
5720             0          0          0          0          0
5730             0          0          0          0          0
5700             0          0          0          0          0
5715             0          0          0          0          0
5685             0          0          0          0          0
5690             0          0          0          0          0
5680             0          0          0          0          0
5675             0          0          0          0          0
5705             0          0          0          0          0
5670             0          0          0          0          0
5775             0          0          0          0          0
5780             0          0          0          0          0
5885             0          0          0          0          0
5870             0          0          0          0          0
5876             0          0          0          0          0
5980             0          0          0          0          0
5985             0          0          0          0          0
5930             0          0          0          0          0
5915             0          0          0          0          0
5920             0          0          0          0          0
5925             0          0          0          0          0
5935             0          0          0          0          0
5940             0          0          0          0          0
5945             0          0          0          0          0
5950             0          0          0          0          0
5970             0          0          0          0          0
2366             0          0          0          0          0
5960             0          0          0          0          0
5955             0          0          0          0          0
4312             0          0          0          0          0
2370             0          0          0          0          0
4310             0          0          0          0          0
4305             0          0          0          0          0
4315             0          0          0          0          0
4345             0          0          0          0          0
4392             0          0          0          0          0
4425             0          0          0          0          0
4405             0          0          0          0          0
4300             0          0          0          0          0
4295             0          0          0          0          0
4290             0          0          0          0          0
4320             0          0          0          0          0
4330             0          0          0          0          0
4460             0          0          0          0          0
4465             0          0          0          0          0
5580             0          0          0          0          0
4340             0          0          0          0          0
4350             0          0          0          0          0
4355             0          0          0          0          0
4450             0          0          0          0          0
4385             0          0          0          0          0
4391             0          0          0          0          0
4390             0          0          0          0          0
4445             0          0          0          0          0
4380             0          0          0          0          0
4381             0          0          0          0          0
4420             0          0          0          0          0
4440             0          0          0          0          0
3650             0          0          0          0          0
3645             0          0          0          0          0
3635             0          0          0          0          0
4400             0          0          0          0          0
4415             0          0          0          0          0
4416             0          0          0          0          0
4435             0          0          0          0          0
4485             0          0          0          0          0
3665             0          0          0          0          0
3670             0          0          0          0          0
3600             0          0          0          0          0
3215             0          0          0          0          0
3210             0          0          0          0          0
3180             0          0          0          0          0
4341             0          0          0          0          0
4395             0          0          0          0          0
3680             0          0          0          0          0
3675             0          0          0          0          0
3655             0          0          0          0          0
3606             0          0          0          0          0
3605             0          0          0          0          0
3205             0          0          0          0          0
3595             0          0          0          0          0
3590             0          0          0          0          0
3585             0          0          0          0          0
4533             0          0          0          0          0
4529             0          0          0          0          0
4528             0          0          0          0          0
4527             0          0          0          0          0
4526             0          0          0          0          0
4525             0          0          0          0          0
3185             0          0          0          0          0
3170             0          0          0          0          0
3111             0          0          0          0          0
3110             0          0          0          0          0
4311             0          0          0          0          0
2935             0          0          0          0          0
2930             0          0          0          0          0
2931             0          0          0          0          0
2940             0          0          0          0          0
2965             0          0          0          0          0
3035             0          0          0          0          0
3040             0          0          0          0          0
3070             0          0          0          0          0
2305             0          0          0          0          0
2451             0          0          0          0          0
2452             0          0          0          0          0
2145             0          0          0          0          0
2140             0          0          0          0          0
2945             0          0          0          0          0
2955             0          0          0          0          0
2995             0          0          0          0          0
2991             0          0          0          0          0
2990             0          0          0          0          0
2985             0          0          0          0          0
2980             0          0          0          0          0
2975             0          0          0          0          0
3045             0          0          0          0          0
3030             0          0          0          0          0
3025             0          0          0          0          0
3020             0          0          0          0          0
3015             0          0          0          0          0
3011             0          0          0          0          0
2996             0          0          0          0          0
2300             0          0          0          0          0
2295             0          0          0          0          0
2290             0          0          0          0          0
2215             0          0          0          0          0
2220             0          0          0          0          0
2230             0          0          0          0          0
2200             0          0          0          0          0
2195             0          0          0          0          0
2185             0          0          0          0          0
2315             0          0          0          0          0
2235             0          0          0          0          0
2240             0          0          0          0          0
2250             0          0          0          0          0
2225             0          0          0          0          0
2265             0          0          0          0          0
2285             0          0          0          0          0
2320             0          0          0          0          0
2840             0          0          0          0          0
2260             0          0          0          0          0
2280             0          0          0          0          0
2325             0          0          0          0          0
2245             0          0          0          0          0
2180             0          0          0          0          0
2175             0          0          0          0          0
2255             0          0          0          0          0
2275             0          0          0          0          0
2330             0          0          0          0          0
2335             0          0          0          0          0
2345             0          0          0          0          0
2365             0          0          0          0          0
2390             0          0          0          0          0
2395             0          0          0          0          0
2400             0          0          0          0          0
2375             0          0          0          0          0
2380             0          0          0          0          0
2385             0          0          0          0          0
1366             0          0          0          0          0
2509             0          0          0          0          0
1515             0          0          0          0          0
1520             0          0          0          0          0
1330             0          0          0          0          0
1335             0          0          0          0          0
1495             0          0          0          0          0
105              0          0          0          0          0
145              0          0          0          0          0
150              0          0          0          0          0
160              0          0          0          0          0