;; SWMM5 .inp converted from XPSWMM .xp file
;; Generated by XPSWMM Card Reader
;; Source format: XP_CARD | Original title: FT SMITH STORMWATER MANAGEMENT PLAN - MAY BRANCH -  5/12/92

[TITLE]
;;Project Title/Notes
FT SMITH STORMWATER MANAGEMENT PLAN - MAY BRANCH -  5/12/92

[OPTIONS]
FLOW_UNITS           CFS
INFILTRATION         HORTON
FLOW_ROUTING         DYNWAVE
LINK_OFFSETS         DEPTH
MIN_SLOPE            0.0
ALLOW_PONDING        NO
SKIP_STEADY_STATE    NO
ROUTING_STEP         00:00:01
VARIABLE_STEP        0.75
INERTIAL_DAMPING     NONE
NORMAL_FLOW_LIMITED  BOTH
MAX_TRIALS           30

[JUNCTIONS]
;;Name           Elev       MaxDepth   InitDepth  SurDepth   Aponded
;;-------------- ---------- ---------- ---------- ---------- ----------
1000n            650.00     0          7.00       0          0
999n             650.00     0          12.00      0          0
1001n            650.00     0          6.00       0          0
1003n            650.00     0          3.20       0          0
1035n            650.00     0          0          0          0
37n              650.00     0          0          0          0
1039n            650.00     0          0          0          0
1040n            650.00     0          0          0          0
1042n            650.00     0          0          0          0
1043n            650.00     0          0          0          0
1045n            650.00     0          0          0          0
1047n            650.00     0          0          0          0
1049n            650.00     0          0          0          0
1051n            650.00     0          0          0          0
1052n            650.00     0          0          0          0
1054n            650.00     0          0          0          0
1056n            650.00     0          0          0          0
1058n            650.00     0          0          0          0
1059n            650.00     0          0          0          0
1061n            650.00     0          0          0          0
1070n            650.00     0          0          0          0
1072n            650.00     0          0          0          0
1073n            650.00     0          0          0          0
1074n            650.00     0          0          0          0
1075n            650.00     0          0          0          0
1077n            650.00     0          0          0          0
1078n            650.00     0          0          0          0
1080n            650.00     0          0          0          0
1081n            650.00     0          0          0          0
1083n            650.00     0          0          0          0
1084n            650.00     0          0          0          0
1086n            650.00     0          0          0          0
1087n            650.00     0          0          0          0
1091n            650.00     0          0          0          0
1092n            650.00     0          0          0          0
1094n            650.00     0          0          0          0
1095n            650.00     0          0          0          0
1097n            650.00     0          0          0          0
1099n            650.00     0          0          0          0
1100n            650.00     0          0          0          0
1101n            650.00     0          0          0          0
1103n            650.00     0          0          0          0
1104n            650.00     0          0          0          0
1106n            650.00     0          0          0          0
1120n            650.00     0          0          0          0
1122n            650.00     0          0          0          0
1123n            650.00     0          0          0          0
1125n            650.00     0          0          0          0
1126n            650.00     0          0          0          0
1128n            650.00     0          0          0          0
1129n            650.00     0          0          0          0
1131n            650.00     0          0          0          0
1139n            650.00     0          0          0          0
1140n            650.00     0          0          0          0
1142n            650.00     0          0          0          0
1144n            650.00     0          0          0          0
1145n            650.00     0          0          0          0
147n             650.00     0          0          0          0
1176n            650.00     0          0          0          0
1178n            650.00     0          0          0          0
997n             650.00     0          0          0          0

[STORAGE]
;;Name           Elev       MaxDepth   InitDepth  Shape      Curve/Params
;;-------------- ---------- ---------- ---------- ---------- ----------
9                650.00     0          0          FUNCTIONAL 0 0          0
1011n            650.00     0          0          FUNCTIONAL 0 0          0
1013n            650.00     0          0          FUNCTIONAL 0 0          0
1015n            650.00     0          0          FUNCTIONAL 0 0          0
1017n            650.00     0          0          FUNCTIONAL 0 0          0
1019n            650.00     0          0          FUNCTIONAL 0 0          0
1023n            650.00     0          0          FUNCTIONAL 0 0          0
1025n            650.00     0          0          FUNCTIONAL 0 0          0
1029n            650.00     0          0          FUNCTIONAL 0 0          0
1031n            650.00     0          0          FUNCTIONAL 0 0          0
1033n            650.00     0          0          FUNCTIONAL 0 0          0
1089n            650.00     0          0          FUNCTIONAL 0 0          0
1090n            650.00     0          0          FUNCTIONAL 0 0          0
1152n            650.00     0          0          FUNCTIONAL 0 0          0
1156n            650.00     0          0          FUNCTIONAL 0 0          0
1158n            650.00     0          0          FUNCTIONAL 0 0          0
1160n            650.00     0          0          FUNCTIONAL 0 0          0
1212n            650.00     0          0          FUNCTIONAL 0 0          0
1162n            650.00     0          0          FUNCTIONAL 0 0          0
1164n            650.00     0          0          FUNCTIONAL 0 0          0
1166n            650.00     0          0          FUNCTIONAL 0 0          0
1172n            650.00     0          0          FUNCTIONAL 0 0          0
1174n            650.00     0          0          FUNCTIONAL 0 0          0
1182n            650.00     0          0          FUNCTIONAL 0 0          0
1250n            650.00     0          0          FUNCTIONAL 0 0          0
1186n            650.00     0          0          FUNCTIONAL 0 0          0
1188n            650.00     0          0          FUNCTIONAL 0 0          0
1192n            650.00     0          0          FUNCTIONAL 0 0          0
1196n            650.00     0          0          FUNCTIONAL 0 0          0
1210n            650.00     0          0          FUNCTIONAL 0 0          0
1216n            650.00     0          0          FUNCTIONAL 0 0          0
1230n            650.00     0          0          FUNCTIONAL 0 0          0
1232n            650.00     0          0          FUNCTIONAL 0 0          0
1236n            650.00     0          0          FUNCTIONAL 0 0          0
1238n            650.00     0          0          FUNCTIONAL 0 0          0
1240n            650.00     0          0          FUNCTIONAL 0 0          0
1242n            650.00     0          0          FUNCTIONAL 0 0          0
1244n            650.00     0          0          FUNCTIONAL 0 0          0
1248n            650.00     0          0          FUNCTIONAL 0 0          0
1260n            650.00     0          0          FUNCTIONAL 0 0          0
1262n            650.00     0          0          FUNCTIONAL 0 0          0
1266n            650.00     0          0          FUNCTIONAL 0 0          0
1268n            650.00     0          0          FUNCTIONAL 0 0          0
1270n            650.00     0          0          FUNCTIONAL 0 0          0
1278n            650.00     0          0          FUNCTIONAL 0 0          0
1280n            650.00     0          0          FUNCTIONAL 0 0          0
1288n            650.00     0          0          FUNCTIONAL 0 0          0
1290n            650.00     0          0          FUNCTIONAL 0 0          0
1292n            650.00     0          0          FUNCTIONAL 0 0          0
1294n            650.00     0          0          FUNCTIONAL 0 0          0
296n             650.00     0          0          FUNCTIONAL 0 0          0

[CONDUITS]
;;Name           From             To               Length     Roughness  InOffset   OutOffset  InitFlow   MaxFlow
;;-------------- ---------------- ---------------- ---------- ---------- ---------- ---------- ---------- ----------
1000             1000n            999n             680.00     0          385.00     380.00     0          0
1001             1001n            1000n            319.00     0.0356     386.00     385.00     0          0
1003             1003n            1001n            482.00     0          388.80     386.00     0          0
1009             10091            1003n            1275.00    0.0196     0          0          0          0
1011             10111            9                1154.00    0.0200     0          0          0          0
1013             1013n            1011n            1086.00    0.0198     399.50     398.70     0          0
1015             1015n            1013n            1310.00    0.0190     402.00     399.50     0          0
10151            1015n            1011n            1310.00    0.0350     415.20     414.50     0          0
1017             10171            1015n            700.00     0.0219     0          0          0          0
1019             10191            1017n            678.00     0.0221     0          0          0          0
1023             1023n            1019n            2122.00    0.0170     412.90     409.00     0          0
10231            1023n            1017n            2350.00    0.0350     424.30     416.20     0          0
1025             10251            1023n            900.00     0.0194     0          0          0          0
1029             10291            1025n            1893.00    0.0169     0          0          0          0
1031             10311            1029n            1257.00    0.0174     0          0          0          0
1033             10331            1031n            1086.00    0.0178     0          0          0          0
1035             10351            1033n            364.00     0.0219     0          0          0          0
1037             37n              1035n            1030.00    0          457.00     449.20     0          0
1039             1039n            37n              560.00     0          461.80     457.00     0          0
1040             1040n            1039n            256.00     0.0268     461.90     461.80     0          0
1042             1042n            1040n            700.00     0          463.30     461.90     0          0
1043             10431            1042n            308.00     0.0241     0          0          0          0
1045             1045n            1043n            500.00     0          474.40     464.30     0          0
1047             10471            1045n            209.00     0.0209     0          0          0          0
1049             1049n            1047n            154.00     0.0208     476.20     475.60     0          0
10491            1049n            1045n            86.00      0.0062     480.00     479.90     0          0
1051             1051n            1049n            990.00     0          480.10     476.20     0          0
1052             10521            1051n            171.00     0.0225     0          0          0          0
1054             1054n            1052n            316.00     0          486.00     480.60     0          0
1056             1056n            1054n            970.00     0          496.10     486.00     0          0
1058             1058n            1056n            300.00     0          496.20     496.10     0          0
1059             1059n            1058n            135.00     0.0234     497.00     496.20     0          0
1061             1061n            1059n            410.00     0          510.00     497.00     0          0
1070             10701            1025n            191.00     0.0212     0          0          0          0
1072             1072n            1070n            400.00     0          418.80     417.90     0          0
1073             10731            1072n            191.00     0.0260     0          0          0          0
1074             1074n            1073n            615.00     0          419.80     418.90     0          0
1075             10751            1074n            195.00     0.0254     0          0          0          0
1077             1077n            1075n            1440.00    0          420.90     420.00     0          0
1078             10781            1077n            191.00     0.0265     0          0          0          0
10782            1078n            1074n            200.00     0.0350     428.00     427.90     0          0
1080             1080n            1078n            625.00     0          422.40     421.00     0          0
1081             10811            1080n            191.00     0.0271     0          0          0          0
1083             1083n            1081n            750.00     0          425.00     422.60     0          0
1084             10841            1083n            435.00     0.0221     0          0          0          0
1086             1086n            1084n            270.00     0          432.50     425.70     0          0
1087             10871            1086n            171.00     0.0259     0          0          0          0
1089             1089n            1087n            308.00     0.0181     435.00     433.50     0          0
1090             1090n            1089n            121.00     0.0131     438.40     435.00     0          0
10901            1090n            1087n            450.00     0.0350     443.00     438.10     0          0
1091             1091n            1087n            700.00     0          449.40     433.50     0          0
1092             10921            1091n            142.00     0.0215     0          0          0          0
1094             1094n            1092n            520.00     0          458.60     449.90     0          0
1095             1095n            1094n            148.00     0.0237     458.70     458.60     0          0
1097             1097n            1095n            470.00     0          475.00     458.70     0          0
1099             1099n            1097n            390.00     0.0190     481.00     475.00     0          0
1100             1100n            1099n            1010.00    0          487.40     481.00     0          0
1101             11011            1100n            335.00     0.0213     0          0          0          0
1103             1103n            1101n            1070.00    0          502.10     491.80     0          0
1104             1104n            1103n            171.00     0.0182     502.40     502.10     0          0
1106             1106n            1104n            520.00     0          518.00     502.40     0          0
1120             11201            1056n            171.00     0.0233     0          0          0          0
1122             1122n            1120n            1020.00    0          504.00     496.60     0          0
1123             11231            1122n            209.00     0.0208     0          0          0          0
1125             1125n            1123n            1680.00    0          515.30     505.00     0          0
1126             11261            1125n            209.00     0.0252     0          0          0          0
1128             1128n            1126n            1070.00    0          535.60     515.40     0          0
1129             11291            1128n            191.00     0.0241     0          0          0          0
1131             1131n            1129n            570.00     0          550.00     536.30     0          0
1139             1139n            1047n            1160.00    0          481.30     475.60     0          0
1140             1140n            1139n            171.00     0.0203     481.40     481.30     0          0
1142             1142n            1140n            900.00     0          504.00     481.40     0          0
1144             1144n            1142n            1893.00    0          530.00     504.00     0          0
1145             1145n            1144n            171.00     0.0203     530.40     530.00     0          0
1147             147n             1145n            1257.00    0          553.00     530.40     0          0
1152             11521            1019n            1330.00    0.0171     0          0          0          0
1156             11561            1152n            1990.00    0.0164     0          0          0          0
1158             11581            1156n            360.00     0.0217     0          0          0          0
1160             1160n            1158n            1050.00    0.0174     443.20     441.20     0          0
11601            1160n            1212n            1990.00    0          451.20     439.80     0          0
1162             11621            1160n            1050.00    0.0169     0          0          0          0
1164             1164n            1162n            800.00     0.0171     458.60     458.00     0          0
11641            1164n            1160n            1600.00    0.0350     465.10     451.20     0          0
1166             11661            1164n            530.00     0.0177     0          0          0          0
1172             11721            1166n            2175.00    0.0157     0          0          0          0
1174             11741            1172n            910.00     0.0159     0          0          0          0
1176             11761            1174n            1210.00    0.0157     0          0          0          0
1178             1178n            1176n            910.00     0          552.30     525.50     0          0
1182             11822            1162n            1960.00    0.0158     0          0          0          0
11821            1182n            1250n            4350.00    0          483.20     440.00     0          0
1186             11861            1182n            1220.00    0.0164     0          0          0          0
1188             11881            1186n            710.00     0.0167     0          0          0          0
1192             11921            1188n            1435.00    0.0157     1.00       0          0          0
1196             11961            1192n            1640.00    0.0154     0          1.00       0          0
1210             12101            1152n            540.00     0.0168     0          0          0          0
1212             12121            1210n            1400.00    0.0156     0          0          0          0
1216             12161            1212n            2160.00    0.0153     0          0          0          0
1230             1230n            1013n            1310.00    0.0168     405.00     399.50     0          0
12301            1230n            1015n            1310.00    0          412.80     410.60     0          0
1232             12321            1230n            1071.00    0.0172     0          0          0          0
1236             12361            1232n            1605.00    0.0163     0          0          0          0
1238             12381            1236n            850.00     0.0174     0          0          0          0
1240             12401            1238n            700.00     0.0179     0          0          0          0
1242             12421            1240n            1370.00    0.0165     0          0          0          0
1244             12441            1242n            435.00     0.0182     0          0          0          0
1248             12481            1244n            1410.00    0.0154     2.60       0          0          0
1250             12501            1248n            350.00     0.0164     0          2.60       0          0
12502            1250n            997n             1760.00    0.0350     440.50     430.00     0          0
1260             12601            1011n            1800.00    0.0159     0          0          0          0
1262             12621            1260n            610.00     0.0174     0          0          0          0
1266             12661            1262n            1260.00    0.0158     0          0          0          0
1268             12681            1266n            400.00     0.0171     0          0          0          0
1270             12701            1268n            875.00     0.0159     0          0          0          0
1278             1278n            1083n            435.00     0.0195     425.70     425.00     0          0
1280             1280n            1278n            196.00     0.0238     426.80     425.70     0          0
1288             1288n            1280n            1782.00    0.0160     440.00     426.80     0          0
12881            1288n            1083n            1782.00    0.0350     447.60     431.60     0          0
1290             1290n            1075n            200.00     0.0229     420.10     420.00     0          0
1292             1292n            1290n            181.00     0.0208     421.30     420.10     0          0
12921            1292n            1074n            181.00     0.0350     427.70     427.90     0          0
1294             12941            1292n            672.00     0.0178     0          0          0          0
1296             12961            1294n            378.00     0.0192     0          0          0          0

[XSECTIONS]
;;Link           Shape        Geom1      Geom2      Geom3      Geom4      Barrels
;;-------------- ------------ ---------- ---------- ---------- ---------- ----------
1000             IRREGULAR    0          0          0          0          1
1001             RECT_CLOSED  14.00      35.00      0          0          1
1003             IRREGULAR    0          0          0          0          1
1009             CIRCULAR     12.00      0          0          0          1
1011             CIRCULAR     12.00      0          0          0          1
1013             CIRCULAR     11.00      0          0          0          1
1015             CIRCULAR     11.00      0          0          0          1
10151            TRAPEZOIDAL  8.00       200.00     0          0          1
1017             CIRCULAR     11.00      0          0          0          1
1019             CIRCULAR     11.00      0          0          0          1
1023             CIRCULAR     9.00       0          0          0          1
10231            TRAPEZOIDAL  4.00       350.00     0          0          1
1025             CIRCULAR     9.00       0          0          0          1
1029             CIRCULAR     8.00       0          0          0          1
1031             CIRCULAR     7.00       0          0          0          1
1033             CIRCULAR     7.00       0          0          0          1
1035             CIRCULAR     6.70       0          0          0          1
1037             IRREGULAR    0          0          0          0          1
1039             IRREGULAR    0          0          0          0          1
1040             RECT_CLOSED  8.00       12.00      0          0          1
1042             IRREGULAR    0          0          0          0          1
1043             RECT_CLOSED  6.00       10.50      0          0          1
1045             IRREGULAR    0          0          0          0          1
1047             CIRCULAR     6.00       0          0          0          1
1049             RECT_CLOSED  3.20       10.00      0          0          1
10491            TRAPEZOIDAL  3.00       100.00     0          0          1
1051             IRREGULAR    0          0          0          0          1
1052             RECT_CLOSED  4.00       10.00      0          0          1
1054             IRREGULAR    0          0          0          0          1
1056             IRREGULAR    0          0          0          0          1
1058             IRREGULAR    0          0          0          0          1
1059             RECT_CLOSED  2.50       12.00      0          0          1
1061             IRREGULAR    0          0          0          0          1
1070             RECT_CLOSED  5.00       12.00      0          0          1
1072             IRREGULAR    0          0          0          0          1
1073             RECT_CLOSED  5.00       23.00      0          0          1
1074             IRREGULAR    0          0          0          0          1
1075             RECT_CLOSED  5.22       19.20      0          0          1
1077             IRREGULAR    0          0          0          0          1
1078             RECT_CLOSED  5.00       24.00      0          0          1
10782            TRAPEZOIDAL  3.00       50.00      0          0          1
1080             IRREGULAR    0          0          0          0          1
1081             RECT_CLOSED  5.00       20.00      0          0          1
1083             IRREGULAR    0          0          0          0          1
1084             RECT_CLOSED  4.00       16.00      0          0          1
1086             IRREGULAR    0          0          0          0          1
1087             RECT_CLOSED  4.00       24.00      0          0          1
1089             CIRCULAR     3.00       0          0          0          1
1090             CIRCULAR     2.00       0          0          0          1
10901            TRAPEZOIDAL  2.00       65.00      0          0          1
1091             IRREGULAR    0          0          0          0          1
1092             RECT_CLOSED  2.70       8.00       0          0          1
1094             IRREGULAR    0          0          0          0          1
1095             RECT_CLOSED  3.00       10.00      0          0          1
1097             IRREGULAR    0          0          0          0          1
1099             RECT_CLOSED  4.00       5.00       0          0          1
1100             IRREGULAR    0          0          0          0          1
1101             CIRCULAR     2.00       0          0          0          1
1103             IRREGULAR    0          0          0          0          1
1104             RECT_CLOSED  4.00       4.00       0          0          1
1106             IRREGULAR    0          0          0          0          1
1120             RECT_CLOSED  4.00       8.00       0          0          1
1122             IRREGULAR    0          0          0          0          1
1123             CIRCULAR     6.00       0          0          0          1
1125             IRREGULAR    0          0          0          0          1
1126             CIRCULAR     6.00       0          0          0          1
1128             IRREGULAR    0          0          0          0          1
1129             HORSESHOE    5.00       10.00      0          0          1
1131             IRREGULAR    0          0          0          0          1
1139             IRREGULAR    0          0          0          0          1
1140             RECT_CLOSED  4.00       6.00       0          0          1
1142             IRREGULAR    0          0          0          0          1
1144             IRREGULAR    0          0          0          0          1
1145             RECT_CLOSED  4.00       6.00       0          0          1
1147             IRREGULAR    0          0          0          0          1
1152             CIRCULAR     6.50       0          0          0          1
1156             CIRCULAR     6.50       0          0          0          1
1158             CIRCULAR     6.50       0          0          0          1
1160             CIRCULAR     6.00       0          0          0          1
11601            IRREGULAR    0          0          0          0          1
1162             CIRCULAR     5.00       0          0          0          1
1164             CIRCULAR     4.50       0          0          0          1
11641            TRAPEZOIDAL  2.50       100.00     0          0          1
1166             CIRCULAR     4.00       0          0          0          1
1172             CIRCULAR     4.00       0          0          0          1
1174             CIRCULAR     2.50       0          0          0          1
1176             CIRCULAR     2.50       0          0          0          1
1178             IRREGULAR    0          0          0          0          1
1182             CIRCULAR     4.25       0          0          0          1
11821            IRREGULAR    0          0          0          0          1
1186             CIRCULAR     4.50       0          0          0          1
1188             CIRCULAR     3.50       0          0          0          1
1192             CIRCULAR     3.00       0          0          0          1
1196             CIRCULAR     2.00       0          0          0          1
1210             CIRCULAR     3.00       0          0          0          1
1212             CIRCULAR     2.50       0          0          0          1
1216             CIRCULAR     2.00       0          0          0          1
1230             CIRCULAR     5.83       0          0          0          1
12301            IRREGULAR    0          0          0          0          1
1232             CIRCULAR     5.83       0          0          0          1
1236             CIRCULAR     5.25       0          0          0          1
1238             CIRCULAR     5.25       0          0          0          1