;; SWMM5 .inp converted from XPSWMM .xp file
;; Generated by XPSWMM Card Reader
;; Source format: XP_CARD | Original title: DRY WEATHER

[TITLE]
;;Project Title/Notes
DRY WEATHER

[OPTIONS]
FLOW_UNITS           CMS
INFILTRATION         HORTON
FLOW_ROUTING         DYNWAVE
LINK_OFFSETS         DEPTH
MIN_SLOPE            0.0
ALLOW_PONDING        NO
SKIP_STEADY_STATE    NO
ROUTING_STEP         00:00:05
VARIABLE_STEP        0.75
INERTIAL_DAMPING     PARTIAL
NORMAL_FLOW_LIMITED  BOTH
MAX_TRIALS           100
HEAD_TOLERANCE       .0001

[JUNCTIONS]
;;Name           Elev       MaxDepth   InitDepth  SurDepth   Aponded
;;-------------- ---------- ---------- ---------- ---------- ----------
PS8-N1           3.96       0          4.64       0          0
PS8-N10          9.14       0          0          0          0
PS8-N20          6.60       0          0          0          0
PS8-N30          5.55       0          0          0          0
PS8-N40          5.70       0          0          0          0
PS8-N50          5.90       0          0          0          0
PS8-N60          5.40       0          0          0          0
PS8-N80          4.18       0          0          0          0
PS8-N70          8.30       0          0          0          0
PS8-N90          7.00       0          0          0          0
PS8-N100         4.40       0          0          0          0
PS8-N110         4.40       0          0          0          0
PS8-N120         4.48       0          0          0          0
PS7-N1           4.75       0          0.61       0          0
PS7-N10          4.75       0          0          0          0
PS7-N60          14.90      0          0          0          0
PS7-N50          13.50      0          0          0          0
PS7-N40          8.53       0          0          0          0
PS7-N30          8.80       0          0          0          0
PS7-N20          9.10       0          0          0          0
PS7-N90          10.70      0          0          0          0
PS7-N80          8.70       0          0          0          0
PS7-N70          8.50       0          0          0          0
PS7-N120         13.00      0          0          0          0
PS7-N110         11.00      0          0          0          0
PS7-N100         10.60      0          0          0          0
PS7-N135         5.18       0          0          0          0
PS7-N140         2.70       0          0          0          0
PS7-N240         32.00      0          0          0          0
PS7-N230         30.00      0          0          0          0
PS7-N220         24.50      0          0          0          0
PS7-N200         24.50      0          0          0          0
PS7-N205         24.50      0          0          0          0
PS7-N190         22.60      0          0          0          0
PS7-N180         11.64      0          0          0          0
PS7-N170         11.30      0          0          0          0
PS7-N160         9.10       0          0          0          0
PS7-N150         11.20      0          0          0          0
PS7-N250         4.42       0          0          0          0
PS7-N330         34.90      0          0          0          0
PS7-N320         34.40      0          0          0          0
PS7-N310         29.70      0          0          0          0
PS7-N300         20.10      0          0          0          0
PS7-N280         14.50      0          0          0          0
PS7-N290         14.80      0          0          0          0
PS7-N270         12.20      0          0          0          0
PS7-N260         10.10      0          0          0          0
PS7-N360         10.80      0          0          0          0
PS7-N350         10.15      0          0          0          0
PS7-N340         4.57       0          0          0          0
PS7-N370         4.70       0          0          0          0
PS7-N438         56.10      0          0          0          0
PS7-N437         53.90      0          0          0          0
PS7-N436         47.50      0          0          0          0
PS7-N435         37.00      0          0          0          0
PS7-N434         32.00      0          0          0          0
PS7-N433         29.40      0          0          0          0
PS7-N432         27.80      0          0          0          0
PS7-N432C        43.20      0          0          0          0
PS7-N432B        33.60      0          0          0          0
PS7-N432A        34.30      0          0          0          0
PS7-N431         22.30      0          0          0          0
PS7-N430A        18.40      0          0          0          0
PS7-N430         18.80      0          0          0          0
PS7-N450         19.00      0          0          0          0
PS7-N440         18.50      0          0          0          0
PS7-N470         26.70      0          0          0          0
PS7-N460         22.70      0          0          0          0
PS7-N425         14.20      0          0          0          0
PS7-N410         12.10      0          0          0          0
PS7-N400         11.00      0          0          0          0
PS7-N390         10.50      0          0          0          0
PS7-N380         10.70      0          0          0          0
PS11A-N20        4.90       0          0.46       0          0
PS7-N550         54.10      0          0          0          0
PS7-N540         52.60      0          0          0          0
PS7-N530         47.20      0          0          0          0
PS7-N520         40.50      0          0          0          0
PS7-N510         37.60      0          0          0          0
PS7-N500         26.00      0          0          0          0
PS7-N490         4.70       0          0          0          0
PS11-N1          3.20       0          1.55       0          0
PS11-N60         3.87       0          0.46       0          0
PS11A-N50        36.00      0          0          0          0
PS11A-N40        32.92      0          0          0          0
PS6-N10          3.60       0          0          0          0
PS6-N20          3.67       0          0          0          0
PS11-N70         4.20       0          0.46       0          0
PS5-N10          4.20       0          0          0          0
PS5-N20          4.20       0          0          0          0
PS11-N80         3.50       0          0.46       0          0
PS11B-N90        7.20       0          0.46       0          0
PS11B-N130       44.40      0          0          0          0
PS11B-N120       43.40      0          0          0          0
PS11B-N110       31.50      0          0          0          0
PS11B-N100       26.40      0          0          0          0
PS11-N140        5.00       0          0.46       0          0
PS11-N150        7.00       0          0.46       0          0
PS11-N10         4.00       0          0.46       0          0
PS7-N185         13.60      0          0          0          0
PS7-N130         6.60       0          0          0          0
PS7-N210         28.50      0          0          0          0
PS7-N420         12.40      0          0          0          0
PS7-N439         56.90      0          0          0          0
PS11A-N30        28.70      0          0          0          0
PS11-N85         24.38      0          0          0          0
PS11-N145        20.70      0          0          0          0
PS8-N15          9.14       0          0          0          0
276              4.65       0          0          0          0

[STORAGE]
;;Name           Elev       MaxDepth   InitDepth  Shape      Curve/Params
;;-------------- ---------- ---------- ---------- ---------- ----------
PS9-N10          4.65       0          0.20       FUNCTIONAL 1.12 0          0
PS-N130          4.57       -0.01      0.23       FUNCTIONAL 1.12 0          0
PS6-N1           3.87       0          0.23       FUNCTIONAL 1.74 0          0
PS5-N1           4.20       0          0.23       FUNCTIONAL 1.95 0          0
PS7-N480         3.20       -0.76      1.05       FUNCTIONAL 18.94 0          0

[CONDUITS]
;;Name           From             To               Length     Roughness  InOffset   OutOffset  InitFlow   MaxFlow
;;-------------- ---------------- ---------------- ---------- ---------- ---------- ---------- ---------- ----------
PS8L20           PS8-N15          PS8-N20          151.72     0.0110     6.25       4.08       0          0
PS8L30           PS8-N20          PS8-N30          46.33      0.0110     4.05       3.91       0          0
PS8L40           PS8-N40          PS8-N30          53.50      0.0110     4.18       4.00       0          0
PS8L50           PS8-N30          PS8-N50          171.17     0.0110     3.91       3.53       0          0
PS8L60           PS8-N50          PS8-N60          192.54     0.0110     3.53       3.09       0          0
PS8L80           PS8-N60          PS8-N80          262.36     0.0110     2.82       2.32       0          0
PS8L70           PS8-N70          PS8-N60          146.61     0.0110     6.78       3.09       0          0
PS8L90           PS8-N90          PS8-N80          139.78     0.0110     5.19       2.32       0          0
8-L100           PS8-N80          PS8-N100         413.49     0.0110     2.32       1.58       0          0
8-L110           PS8-N100         PS8-N110         277.77     0.0110     1.57       1.13       0          0
8-L120           PS8-N110         PS8-N120         252.22     0.0110     0.90       0.37       0          0
8-L130           PS8-N120         PS-N130          126.71     0.0110     0.37       0.16       0          0
7-L10            PS7-N1           PS7-N10          265.18     0.0090     3.35       3.96       0          0
7-L60            PS7-N60          PS7-N50          130.73     0.0110     11.75      9.76       0          0
7-L50            PS7-N50          PS7-N40          359.97     0.0110     9.76       6.45       0          0
7-L40            PS7-N40          PS7-N30          170.32     0.0110     6.45       5.48       0          0
7-L30            PS7-N30          PS7-N20          306.26     0.0110     5.48       4.87       0          0
7-L20            PS7-N20          PS7-N10          299.41     0.0110     4.87       3.82       0          0
7-L90            PS7-N90          PS7-N80          142.65     0.0110     7.76       7.05       0          0
7-L80            PS7-N80          PS7-N70          179.10     0.0110     7.05       6.16       0          0
7-L70            PS7-N70          PS7-N30          135.45     0.0110     6.16       5.48       0          0
7-L120           PS7-N120         PS7-N110         279.33     0.0100     11.53      9.18       0          0
7-L110           PS7-N110         PS7-N100         20.28      0.0100     9.18       7.43       0          0
7-L100           PS7-N100         PS7-N80          77.11      0.0110     7.44       7.05       0          0
7-L130           PS7-N10          PS7-N130         141.31     0.0110     3.81       3.58       0          0
7-L140           PS7-N135         PS7-N140         121.98     0.0110     3.18       2.33       0          0
7-L240           PS7-N240         PS7-N230         94.49      0.0100     29.02      27.74      0          0
7-L230           PS7-N230         PS7-N220         173.74     0.0100     27.74      22.30      0          0
7-L220           PS7-N220         PS7-N200         396.69     0.0100     22.30      20.20      0          0
7-L205           PS7-N205         PS7-N200         18.23      0.0110     21.80      21.20      0          0
7-L200           PS7-N200         PS7-N190         82.48      0.0110     20.20      19.89      0          0
7-L190           PS7-N190         PS7-N185         384.05     0.0110     19.89      10.98      0          0
7-L180           PS7-N180         PS7-N170         96.71      0.0110     9.38       8.42       0          0
7-L170           PS7-N170         PS7-N160         108.87     0.0110     8.42       7.31       0          0
7-L160           PS7-N160         PS7-N150         433.70     0.0110     7.02       6.20       0          0
7-L150           PS7-N150         PS7-N140         151.88     0.0110     6.20       2.25       0          0
7-L250           PS7-N140         PS7-N250         209.00     0.0110     2.25       1.56       0          0
7-L330           PS7-N330         PS7-N320         118.66     0.0100     28.85      28.24      0          0
7-L320           PS7-N320         PS7-N310         233.70     0.0110     28.24      27.05      0          0
7-L310           PS7-N310         PS7-N300         277.06     0.0110     27.05      17.30      0          0
7-L300           PS7-N300         PS7-N280         177.67     0.0110     17.30      11.24      0          0
7-L290           PS7-N290         PS7-N280         99.17      0.0110     11.77      11.24      0          0
7-L280           PS7-N280         PS7-N270         223.81     0.0110     11.24      9.25       0          0
7-L270           PS7-N270         PS7-N260         212.75     0.0110     9.25       6.72       0          0
7-L260           PS7-N260         PS7-N250         143.26     0.0110     6.72       1.56       0          0
7-L360           PS7-N360         PS7-N350         118.78     0.0110     7.85       7.05       0          0
7-L350           PS7-N350         PS7-N340         110.06     0.0110     7.05       2.90       0          0
7-L340           PS7-N250         PS7-N340         271.42     0.0110     1.56       1.10       0          0
7-L370           PS7-N340         PS7-N370         205.55     0.0110     1.10       0.71       0          0
7-L438           PS7-N438         PS7-N437         178.53     0.0100     53.70      52.50      0          0
7-L437           PS7-N437         PS7-N436         220.70     0.0100     52.50      45.64      0          0
7-L435           PS7-N435         PS7-N434         26.48      0.0100     34.91      30.27      0          0
7-L434           PS7-N434         PS7-N433         53.34      0.0100     30.27      26.14      0          0
7-L433           PS7-N433         PS7-N432         164.61     0.0110     26.14      25.32      0          0
7L432C           PS7-N432C        PS7-N432B        195.73     0.0100     38.32      31.47      0          0
7L432B           PS7-N432B        PS7-N432A        37.00      0.0110     31.47      31.08      0          0
7L432A           PS7-N432A        PS7-N432         42.50      0.0100     31.08      25.32      0          0
7-L431           PS7-N431         PS7-N430A        450.67     0.0110     21.45      16.17      0          0
7L430A           PS7-N430A        PS7-N430         20.00      0.0110     16.17      16.00      0          0
7-L450           PS7-N450         PS7-N440         91.14      0.0100     17.10      16.60      0          0
7-L440           PS7-N440         PS7-N430         20.10      0.0110     16.20      16.00      0          0
7-L470           PS7-N470         PS7-N460         98.57      0.0100     22.57      17.65      0          0
7-L460           PS7-N460         PS7-N450         50.54      0.0100     17.65      17.20      0          0
7-L430           PS7-N430         PS7-N425         652.80     0.0110     16.00      8.09       0          0
7-L420           PS7-N420         PS7-N410         244.40     0.0110     7.78       6.34       0          0
7-L410           PS7-N410         PS7-N400         309.23     0.0110     6.34       5.60       0          0
7-L400           PS7-N400         PS7-N390         76.36      0.0110     5.61       5.40       0          0
7-L390           PS7-N390         PS7-N380         294.71     0.0141     5.41       4.44       0          0
7-L380           PS7-N380         PS7-N370         181.97     0.0110     4.44       0.71       0          0
7-L550           PS7-N550         PS7-N540         85.34      0.0110     52.03      50.75      0          0
7-L540           PS7-N540         PS7-N530         73.76      0.0110     50.75      44.75      0          0
7-L530           PS7-N530         PS7-N520         533.39     0.0110     44.71      38.42      0          0
7-L520           PS7-N520         PS7-N510         164.71     0.0110     38.42      35.06      0          0
7-L510           PS7-N510         PS7-N500         132.89     0.0110     35.05      24.26      0          0
7-L500           PS7-N500         PS7-N490         180.70     0.0110     24.26      2.68       0          0
7-L490           PS7-N490         PS7-N480         434.92     0.0110     2.68       1.24       0          0
7-L480           PS7-N370         PS7-N480         359.70     0.0110     0.71       -0.34      0          0
11-L60           PS11A-N20        PS11-N60         510.00     0.0150     2.68       2.65       0          0
11AL50           PS11A-N50        PS11A-N40        154.84     0.0110     34.15      31.70      0          0
11AL30           PS11A-N30        PS11A-N20        55.00      0.0110     27.13      3.33       0          0
6-L10            PS6-N10          PS6-N1           76.20      0.0110     2.17       1.73       0          0
6-L20            PS6-N20          PS6-N1           111.62     0.0110     1.30       0.93       0          0
11-L70           PS11-N60         PS11-N70         1115.00    0.0150     2.65       2.09       0          0
5-L10            PS5-N10          PS5-N1           311.89     0.0110     2.25       1.22       0          0
5-L20            PS5-N20          PS5-N1           175.29     0.0110     0.88       0.30       0          0
11-L80           PS11-N70         PS11-N80         215.00     0.0150     2.09       1.99       0          0
11-L90           PS11-N80         PS11B-N90        550.00     0.0150     1.99       1.19       0          0
11B130           PS11B-N130       PS11B-N120       107.90     0.0110     30.54      30.03      0          0
11B120           PS11B-N120       PS11B-N110       91.94      0.0110     29.45      18.88      0          0
11B110           PS11B-N110       PS11B-N100       62.18      0.0110     18.88      13.81      0          0
11B100           PS11B-N100       PS11B-N90        60.00      0.0110     13.81      1.41       0          0
11L140           PS11B-N90        PS11-N140        400.00     0.0150     1.19       0.91       0          0
11L150           PS11-N140        PS11-N150        1110.00    0.0150     0.91       0.24       0          0
8-L10            PS8-N1           PS8-N10          220.00     0.0110     2.83       7.47       0          0
SC-PR            DI-PR            PS11-N10         434.90     0.0150     1.69       2.79       0          0
11-L20           PS11-N10         PS11A-N20        460.00     0.0150     2.79       2.68       0          0
7-L185           PS7-N185         PS7-N180         94.75      0.0110     10.98      9.64       0          0
7-L135           PS7-N130         PS7-N135         150.88     0.0110     3.58       3.18       0          0
7-L210           PS7-N210         PS7-N205         103.00     0.0100     26.70      22.70      0          0
7-L425           PS7-N425         PS7-N420         120.70     0.0110     8.09       7.78       0          0
7-L432           PS7-N432         PS7-N431         166.23     0.0110     25.32      21.45      0          0
7-L436           PS7-N436         PS7-N435         207.20     0.0100     45.64      34.91      0          0
7-L439           PS7-N439         PS7-N438         94.50      0.0100     54.45      53.70      0          0
11AL40           PS11A-N40        PS11A-N30        46.39      0.0110     31.70      27.13      0          0
11-L85           PS11-N85         PS11-N80         100.00     0.0110     22.28      1.75       0          0
11L145           PS11-N145        PS11-N140        3.75       0.0110     18.71      12.16      0          0
PS8-L15          PS8-N10          PS8-N15          4.60       0.0110     7.47       6.25       0          0
dummy9           276              PS9-N10          10.00      0.0010     2.50       2.50       0          0

[PUMPS]
;;Name           From             To               PumpCurve  Status   Startup    Shutoff
;;-------------- ---------------- ---------------- ---------- -------- ---------- ----------
PS6LEAD          PS6LAG           PS11-N60         PC_PS6LEAD ON       0.76       0.23      
PS5LEAD          PS5LAG           PS11-N70         PC_PS5LEAD ON       0.09       -0.52     
PS7LEAD          PS7LAG           PS11-N1          PC_PS7LEAD ON       0.16       -0.69     
PS8LEAD          PS8LAG           PS7-N1           PC_PS8LEAD ON       0          -0.52     
PS9LEAD          PS9LAG           PS8-N1           PC_PS9LEAD ON       2.36       2.03      

[CURVES]
;;Name           Type       X-Value    Y-Value
;;-------------- ---------- ---------- ----------
PC_PS6LEAD       Pump3      0          0
;
PC_PS5LEAD       Pump3      0          0
;
PC_PS7LEAD       Pump3      0          0
;
PC_PS8LEAD       Pump3      0          0
;
PC_PS9LEAD       Pump3      0          0
;

[XSECTIONS]
;;Link           Shape        Geom1      Geom2      Geom3      Geom4      Barrels
;;-------------- ------------ ---------- ---------- ---------- ---------- ----------
PS8L20           CIRCULAR     0.20       0          0          0          1
PS8L30           CIRCULAR     0.25       0          0          0          1
PS8L40           CIRCULAR     0.20       0          0          0          1
PS8L50           CIRCULAR     0.25       0          0          0          1
PS8L60           CIRCULAR     0.25       0          0          0          1
PS8L80           CIRCULAR     0.30       0          0          0          1
PS8L70           CIRCULAR     0.20       0          0          0          1
PS8L90           CIRCULAR     0.20       0          0          0          1
8-L100           CIRCULAR     0.30       0          0          0          1
8-L110           CIRCULAR     0.30       0          0          0          1
8-L120           CIRCULAR     0.30       0          0          0          1
8-L130           CIRCULAR     0.35       0          0          0          1
7-L10            CIRCULAR     0.15       0          0          0          1
7-L60            CIRCULAR     0.20       0          0          0          1
7-L50            CIRCULAR     0.20       0          0          0          1
7-L40            CIRCULAR     0.20       0          0          0          1
7-L30            CIRCULAR     0.30       0          0          0          1
7-L20            CIRCULAR     0.30       0          0          0          1
7-L90            CIRCULAR     0.20       0          0          0          1
7-L80            CIRCULAR     0.20       0          0          0          1
7-L70            CIRCULAR     0.20       0          0          0          1
7-L120           CIRCULAR     0.20       0          0          0          1
7-L110           CIRCULAR     0.20       0          0          0          1
7-L100           CIRCULAR     0.15       0          0          0          1
7-L130           CIRCULAR     0.35       0          0          0          1
7-L140           CIRCULAR     0.35       0          0          0          1
7-L240           CIRCULAR     0.20       0          0          0          1
7-L230           CIRCULAR     0.20       0          0          0          1
7-L220           CIRCULAR     0.20       0          0          0          1
7-L205           CIRCULAR     0.20       0          0          0          1
7-L200           CIRCULAR     0.20       0          0          0          1
7-L190           CIRCULAR     0.20       0          0          0          1
7-L180           CIRCULAR     0.25       0          0          0          1
7-L170           CIRCULAR     0.25       0          0          0          1
7-L160           CIRCULAR     0.30       0          0          0          1
7-L150           CIRCULAR     0.30       0          0          0          1
7-L250           CIRCULAR     0.35       0          0          0          1
7-L330           CIRCULAR     0.20       0          0          0          1
7-L320           CIRCULAR     0.20       0          0          0          1
7-L310           CIRCULAR     0.20       0          0          0          1
7-L300           CIRCULAR     0.20       0          0          0          1
7-L290           CIRCULAR     0.20       0          0          0          1
7-L280           CIRCULAR     0.20       0          0          0          1
7-L270           CIRCULAR     0.20       0          0          0          1
7-L260           CIRCULAR     0.20       0          0          0          1
7-L360           CIRCULAR     0.20       0          0          0          1
7-L350           CIRCULAR     0.20       0          0          0          1
7-L340           CIRCULAR     0.40       0          0          0          1
7-L370           CIRCULAR     0.40       0          0          0          1
7-L438           CIRCULAR     0.20       0          0          0          1
7-L437           CIRCULAR     0.20       0          0          0          1
7-L435           CIRCULAR     0.20       0          0          0          1
7-L434           CIRCULAR     0.20       0          0          0          1
7-L433           CIRCULAR     0.30       0          0          0          1
7L432C           CIRCULAR     0.20       0          0          0          1
7L432B           CIRCULAR     0.20       0          0          0          1
7L432A           CIRCULAR     0.20       0          0          0          1
7-L431           CIRCULAR     0.30       0          0          0          1
7L430A           CIRCULAR     0.30       0          0          0          1
7-L450           CIRCULAR     0.20       0          0          0          1
7-L440           CIRCULAR     0.30       0          0          0          1
7-L470           CIRCULAR     0.20       0          0          0          1
7-L460           CIRCULAR     0.20       0          0          0          1
7-L430           CIRCULAR     0.30       0          0          0          1
7-L420           CIRCULAR     0.35       0          0          0          1
7-L410           CIRCULAR     0.35       0          0          0          1
7-L400           CIRCULAR     0.35       0          0          0          1
7-L390           CIRCULAR     0.35       0          0          0          1
7-L380           CIRCULAR     0.35       0          0          0          1
7-L550           CIRCULAR     0.20       0          0          0          1
7-L540           CIRCULAR     0.20       0          0          0          1
7-L530           CIRCULAR     0.20       0          0          0          1
7-L520           CIRCULAR     0.25       0          0          0          1
7-L510           CIRCULAR     0.25       0          0          0          1
7-L500           CIRCULAR     0.25       0          0          0          1
7-L490           CIRCULAR     0.25       0          0          0          1
7-L480           CIRCULAR     0.40       0          0          0          1
11-L60           CIRCULAR     0.45       0          0          0          1
11AL50           CIRCULAR     0.20       0          0          0          1
11AL30           CIRCULAR     0.20       0          0          0          1
6-L10            CIRCULAR     0.20       0          0          0          1
6-L20            CIRCULAR     0.20       0          0          0          1
11-L70           CIRCULAR     0.45       0          0          0          1
5-L10            CIRCULAR     0.20       0          0          0          1
5-L20            CIRCULAR     0.20       0          0          0          1
11-L80           CIRCULAR     0.45       0          0          0          1
11-L90           CIRCULAR     0.45       0          0          0          1
11B130           CIRCULAR     0.20       0          0          0          1
11B120           CIRCULAR     0.20       0          0          0          1
11B110           CIRCULAR     0.20       0          0          0          1
11B100           CIRCULAR     0.20       0          0          0          1
11L140           CIRCULAR     0.45       0          0          0          1
11L150           CIRCULAR     0.45       0          0          0          1
8-L10            CIRCULAR     0.20       0          0          0          1
SC-PR            CIRCULAR     0.30       0          0          0          1
11-L20           CIRCULAR     0.45       0          0          0          1
7-L185           CIRCULAR     0.20       0          0          0          1
7-L135           CIRCULAR     0.35       0          0          0          1
7-L210           CIRCULAR     0.20       0          0          0          1
7-L425           CIRCULAR     0.30       0          0          0          1
7-L432           CIRCULAR     0.30       0          0          0          1
7-L436           CIRCULAR     0.20       0          0          0          1
7-L439           CIRCULAR     0.20       0          0          0          1
11AL40           CIRCULAR     0.20       0          0          0          1
11-L85           CIRCULAR     0.20       0          0          0          1
11L145           CIRCULAR     0.20       0          0          0          1
PS8-L15          CIRCULAR     0.20       0          0          0          1
dummy9           CIRCULAR     0.25       0          0          0          1

[LOSSES]
;;Link           Inlet      Outlet     Average    Flap Gate
;;-------------- ---------- ---------- ---------- ----------
PS8L20           0          0          0          NO
PS8L30           0          0          0          NO
PS8L40           0          0          0          NO
PS8L50           0          0          0          NO
PS8L60           0          0          0          NO
PS8L80           0          0          0          NO
PS8L70           0          0          0          NO
PS8L90           0          0          0          NO
8-L100           0          0          0          NO