;; SWMM5 .inp converted from XPSWMM .xp file
;; Generated by XPSWMM Card Reader
;; Source format: XP_CARD | Original title: TRENTON TEST

[TITLE]
;;Project Title/Notes
TRENTON TEST

[OPTIONS]
FLOW_UNITS           CFS
INFILTRATION         HORTON
FLOW_ROUTING         DYNWAVE
LINK_OFFSETS         DEPTH
MIN_SLOPE            0.0
ALLOW_PONDING        NO
SKIP_STEADY_STATE    NO
ROUTING_STEP         00:00:60
VARIABLE_STEP        0.75
INERTIAL_DAMPING     PARTIAL
NORMAL_FLOW_LIMITED  BOTH
MAX_TRIALS           50
HEAD_TOLERANCE       0.

[JUNCTIONS]
;;Name           Elev       MaxDepth   InitDepth  SurDepth   Aponded
;;-------------- ---------- ---------- ---------- ---------- ----------
V44              588.25     0          0          0          0
V41              587.66     0          0          0          0
V34              587.96     0          0          0          0
V17              591.54     0          0          0          0
BP006-1          587.93     0          0          0          0
V14              585.94     0          0          0          0
U33              577.68     0          0          0          0
U4               575.80     0          0          0          0
T6               583.37     0          0          0          0
T16              578.66     0          0          0          0
T14              578.01     0          0          0          0
WWTP1            583.00     0          0          0          0
AA15             583.94     0          0          0          0
J2               583.02     0          0          0          0
AA8A             585.78     0          0          0          0
AA3              580.24     0          0          0          0
K10              588.44     0          0          0          0
K7               584.80     0          0          0          0
I1               592.77     0          0          0          0
W33              583.68     0          0          0          0
W20              578.28     0          0          0          0
W8               579.34     0          0          0          0
P2               586.38     0          0          0          0
W50              583.37     0          0          0          0
W43              581.71     0          0          0          0
K2               592.76     0          0          0          0
W4               585.16     0          0          0          0
W2               585.28     0          0          0          0
BP006-2          585.00     0          0          0          0
U34B             577.44     0          0          0          0
U35A             577.29     0          0          0          0
AA6              585.29     0          0          0          0
AA9              584.46     0          0          0          0
AA14             581.53     0          0          0          0
Z1               581.80     0          0          0          0
W-S2             583.68     0          0          0          0
W33-2            583.68     0          0          0          0
RETBAS2          594.74     0          0          0          0
CH1              582.95     0          0          0          0
K2-S             592.76     0          0          0          0
AA6-S            585.78     0          0          0          0
AA3-S            585.29     0          0          0          0
AA1-S            580.24     0          0          0          0
T6-S1            578.01     0          0          0          0
T6-S2            583.37     0          0          0          0
I1-S             592.77     0          0          0          0
W50-S            583.37     0          0          0          0
W4-S             585.16     0          0          0          0
exit1            600.00     0          0          0          0
AA14-S           581.53     0          0          0          0
WJPS             600.00     0          0          0          0
V15              587.00     0          0          0          0
V25A             590.00     0          0          0          0
V24              590.00     0          0          0          0
bars             582.95     0          0          0          0
U35B-S           585.94     0          0          0          0
V2-S             585.94     0          0          0          0
CH1-S            582.95     0          0          0          0
EXIT2            600.00     0          0          0          0

[STORAGE]
;;Name           Elev       MaxDepth   InitDepth  Shape      Curve/Params
;;-------------- ---------- ---------- ---------- ---------- ----------
V2               578.72     0          0          FUNCTIONAL 100.00 0          0
U35B             577.58     0          0          FUNCTIONAL 100.00 0          0
VHPS             584.50     0          0          FUNCTIONAL 160.00 0          0
AA1              581.08     0          0          FUNCTIONAL 0 0          0
FORTPS1          583.00     0          0          FUNCTIONAL 200.00 0          0
RETBAS           594.74     0          0          FUNCTIONAL 0 0          0
GRIT1            582.95     0          0          FUNCTIONAL 640.00 0          0
K10-G            1200.00    0          0          FUNCTIONAL 54.45 0          0
GP2              1200.00    0          0          FUNCTIONAL 0 0          0
GW-S2            1200.00    0          0          FUNCTIONAL 0 0          0
GZ1              1200.00    0          0          FUNCTIONAL 0 0          0
GAA15            1200.00    0          0          FUNCTIONAL 0 0          0
GJ2              1200.00    0          0          FUNCTIONAL 0 0          0
GV44             1200.00    0          0          FUNCTIONAL 0 0          0
GV17             1200.00    0          0          FUNCTIONAL 0 0          0
GAA1             1200.00    0          0          FUNCTIONAL 0 0          0
GW2              1200.00    0          0          FUNCTIONAL 0 0          0
GW8              1200.00    0          0          FUNCTIONAL 0 0          0
GT16             1200.00    0          0          FUNCTIONAL 0 0          0
GK2              1200.00    0          0          FUNCTIONAL 0 0          0
GU4              1200.00    0          0          FUNCTIONAL 0 0          0

[CONDUITS]
;;Name           From             To               Length     Roughness  InOffset   OutOffset  InitFlow   MaxFlow
;;-------------- ---------------- ---------------- ---------- ---------- ---------- ---------- ---------- ----------
LV41             V44              V41              689.00     0.0130     579.50     578.51     0          0
LV34             V41              V34              1126.00    0.0130     578.76     577.17     0          0
LV15             V17              V15              170.00     0.0130     575.09     575.04     0          0
LU35B            V2               U35B             663.00     0.0130     568.55     567.48     0          0
OLU35B-S         V14              U35B-S           200.00     0.0130     575.19     571.42     0          0
LU4              U33              U4               1511.00    0.0130     566.38     563.88     0          0
LT14             T16              T14              1425.00    0.0130     567.29     566.14     0          0
LWWTP1           T6               WWTP1            1120.00    0.0130     562.81     562.02     0          0
LAA9             J2               AA9              377.00     0.0130     563.07     560.54     0          0
LAA1-S           AA3              AA1-S            829.00     0.0130     567.07     565.39     0          0
LK7              K10              K7               198.00     0.0130     571.66     571.43     0          0
LI1-S            K7               I1-S             1823.00    0.0130     571.43     570.02     0          0
LK2-S            I1               K2-S             205.00     0.0130     569.77     569.52     0          0
LMARPS           W33              W20              2727.00    0.0200     566.65     565.88     0          0
LW8              W20              W8               231.00     0.0170     565.88     565.75     0          0
LW50-S           P2               W50-S            810.00     0.0130     572.78     570.44     0          0
LW-S2            W43              W-S2             431.00     0.0130     567.01     566.75     0          0
LW43             W50              W43              1204.00    0.0130     569.77     567.01     0          0
LW4-S            W8               W4-S             263.00     0.0170     565.75     565.68     0          0
LW2              W4               W2               1112.00    0.0130     565.36     564.39     0          0
RWEIR2           BP006-1          BP006-2          150.00     0.0500     577.50     570.38     0          0
LU34A            U35B             U34B             988.00     0.0130     567.83     566.54     0          0
LU33             U35A             U33              649.00     0.0130     566.52     566.33     0          0
LAA3-S           AA6              AA3-S            839.00     0.0130     569.09     567.54     0          0
LAA14-2          Z1               AA14             150.00     0.0130     570.80     565.25     0          0
LW33-2           W-S2             W33              300.00     0.0130     566.75     566.65     0          0
WWEIR1           W33              W33-2            200.00     0.0540     568.70     566.65     0          0
LFORTPS1         W33-2            FORTPS1          1000.00    0.0090     566.65     559.24     0          0
WWEIR3           RETBAS           RETBAS2          300.00     0.1600     592.54     571.74     0          0
LAA3-1           RETBAS2          AA3              200.00     0.0130     571.74     567.07     0          0
LK2              K2-S             K2               200.00     0.0130     569.52     568.61     0          0
LW33-1           K2               W33              1283.00    0.0130     568.61     567.60     0          0
LCH1-S           W2               CH1-S            763.00     0.0130     564.39     563.77     0          0
LAA6-S           AA8A             AA6-S            520.00     0.0130     572.16     571.50     0          0
LCH1-2           WWTP1            CH1              225.00     0.0130     562.02     561.14     0          0
RWEIR1           V34              BP006-1          200.00     0.0380     578.30     576.00     0          0
LV2-S            V14              V2-S             606.00     0.0130     574.69     573.46     0          0
LT6-S2           U4               T6-S2            966.00     0.0130     563.88     563.29     0          0
LT6-S1           T14              T6-S1            1885.00    0.0130     566.14     563.73     0          0
LAA6             AA6-S            AA6              200.00     0.0130     571.50     569.09     0          0
LAA3             AA3-S            AA3              200.00     0.0130     567.54     567.07     0          0
LAA1             AA1-S            AA1              200.00     0.0140     565.39     564.77     0          0
LT6-1            T6-S1            T6               200.00     0.0130     563.73     562.81     0          0
LT6-2            T6-S2            T6               200.00     0.0130     563.29     562.81     0          0
LI1              I1-S             I1               200.00     0.0130     570.02     569.77     0          0
LW50             W50-S            W50              200.00     0.0130     570.44     569.77     0          0
LW4              W4-S             W4               200.00     0.0170     565.68     565.36     0          0
SIP1             SIP2             SIP3             150.00     0.0040     566.54     566.36     0          0
440              ?                ?                150.00     0.0130     562.44     561.93     0          0
LAA14-1          AA15             AA14-S           200.00     0.0130     562.84     562.44     0          0
LV25A            V34              V25A             1624.00    0.0130     577.17     575.66     0          0
48               CH1              bars             200.00     0.0090     561.14     561.04     0          0
LV14             V15              V14              197.00     0.0130     575.04     574.69     0          0
LV24             V25A             V24              379.00     0.0130     575.77     575.75     0          0
LV17             V24              V17              1024.00    0.0130     575.75     574.96     0          0
BARSCRN          bars             GRIT1            300.00     0.0130     561.04     561.03     0          0
LU35B-S          U35B-S           U35B             200.00     0.0130     571.42     567.48     0          0
LV2              V2-S             V2               200.00     0.0130     573.46     568.55     0          0
LCH1             CH1-S            CH1              300.00     0.0130     563.77     561.14     0          0
LVHPS1           AA9              VHPS             150.00     0.0130     560.54     559.52     0          0
LVHPS2           AA14             VHPS             753.00     0.0130     561.93     559.52     0          0
LBAR             AA1              bars             190.00     0.0130     564.77     564.24     0          0
LEXIT            exit1            EXIT2            400.00     0.0130     588.00     586.00     0          0

[ORIFICES]
;;Name           From             To               Type       Offset     Qcoeff     Gated    CloseTime
;;-------------- ---------------- ---------------- ---------- ---------- ---------- -------- ----------
GLK-10           K10-G            K10              SIDE       573.78     0.650      NO       0
GLK2             GK2              K2               SIDE       0          0.650      NO       0
GLP2             GP2              P2               SIDE       0          0.650      NO       0
GLW-S2           GW-S2            W-S2             SIDE       0          0.650      NO       0
GLZ1             GZ1              Z1               SIDE       0          0.650      NO       0
GLAA15           GAA15            AA15             SIDE       0          0.650      NO       0
LGJ2             GJ2              J2               SIDE       0          0.650      NO       0
GLV44            GV44             V44              SIDE       0          0.650      NO       0
GLV17            GV17             V17              SIDE       0          0.650      NO       0
GLAA1            GAA1             AA1              SIDE       0          0.650      NO       0
GLW2             GW2              W2               SIDE       0          0.650      NO       0
GLW8             GW8              W8               SIDE       0          0.650      NO       0
GLT16            GT16             T16              SIDE       0          0.650      NO       0
GLU4             GU4              U4               SIDE       0          0.650      NO       0

[PUMPS]
;;Name           From             To               PumpCurve  Status   Startup    Shutoff
;;-------------- ---------------- ---------------- ---------- -------- ---------- ----------
lead1            lag1             lag2             PC_lead1   ON       563.90     562.40    
P10L             P10H             exit1            PC_P10L    ON       564.50     562.00    
p3               CH1              WJPS             PC_p3      ON       571.00     568.00    
VHPS-1           VHPS             AA8A             PC_VHPS-1  ON       561.07     557.57    

[CURVES]
;;Name           Type       X-Value    Y-Value
;;-------------- ---------- ---------- ----------
PC_lead1         Pump3      0          0
;
PC_P10L          Pump4      0          0
;
PC_p3            Pump4      0          0
;
PC_VHPS-1        Pump4      0          0
;

[XSECTIONS]
;;Link           Shape        Geom1      Geom2      Geom3      Geom4      Barrels
;;-------------- ------------ ---------- ---------- ---------- ---------- ----------
LV41             CIRCULAR     2.00       0          0          0          1
LV34             CIRCULAR     2.50       0          0          0          1
LV15             CIRCULAR     3.00       0          0          0          1
LU35B            CIRCULAR     2.50       0          0          0          1
OLU35B-S         CIRCULAR     3.50       0          0          0          1
LU4              CIRCULAR     2.50       0          0          0          1
LT14             CIRCULAR     2.00       0          0          0          1
LWWTP1           CIRCULAR     3.00       0          0          0          1
LAA9             CIRCULAR     2.00       0          0          0          1
LAA1-S           CIRCULAR     4.00       0          0          0          1
LK7              CIRCULAR     3.00       0          0          0          1
LI1-S            CIRCULAR     3.00       0          0          0          1
LK2-S            CIRCULAR     3.00       0          0          0          1
LMARPS           CIRCULAR     5.00       0          0          0          1
LW8              CIRCULAR     5.00       0          0          0          1
LW50-S           CIRCULAR     4.00       0          0          0          1
LW-S2            CIRCULAR     5.00       0          0          0          1
LW43             CIRCULAR     5.00       0          0          0          1
LW4-S            CIRCULAR     5.00       0          0          0          1
LW2              CIRCULAR     5.00       0          0          0          1
RWEIR2           CUSTOM       4.50       0          0          0          1
LU34A            CIRCULAR     2.50       0          0          0          1
LU33             CIRCULAR     2.50       0          0          0          1
LAA3-S           CIRCULAR     4.00       0          0          0          1
LAA14-2          CIRCULAR     2.00       0          0          0          1
LW33-2           CIRCULAR     5.00       0          0          0          1
WWEIR1           RECT_CLOSED  5.60       10.00      0          0          1
LFORTPS1         CIRCULAR     4.00       0          0          0          1
WWEIR3           RECT_CLOSED  2.20       5.00       0          0          1
LAA3-1           CIRCULAR     4.00       0          0          0          1
LK2              CIRCULAR     3.00       0          0          0          1
LW33-1           CIRCULAR     4.00       0          0          0          1
LCH1-S           CIRCULAR     5.00       0          0          0          1
LAA6-S           CIRCULAR     4.00       0          0          0          1
LCH1-2           CIRCULAR     3.00       0          0          0          1
RWEIR1           RECT_CLOSED  1.00       18.00      0          0          1
LV2-S            CIRCULAR     3.00       0          0          0          1
LT6-S2           CIRCULAR     2.50       0          0          0          1
LT6-S1           CIRCULAR     2.50       0          0          0          1
LAA6             CIRCULAR     4.00       0          0          0          1
LAA3             CIRCULAR     4.00       0          0          0          1
LAA1             CIRCULAR     4.00       0          0          0          1
LT6-1            CIRCULAR     2.50       0          0          0          1
LT6-2            CIRCULAR     2.50       0          0          0          1
LI1              CIRCULAR     3.00       0          0          0          1
LW50             CIRCULAR     4.00       0          0          0          1
LW4              CIRCULAR     5.00       0          0          0          1
SIP1             CIRCULAR     1.33       0          0          0          3
440              CIRCULAR     3.00       0          0          0          1
LAA14-1          CIRCULAR     3.00       0          0          0          1
LV25A            CIRCULAR     3.00       0          0          0          1
48               CIRCULAR     4.00       0          0          0          1
LV14             CIRCULAR     3.00       0          0          0          1
LV24             CIRCULAR     3.00       0          0          0          1
LV17             CIRCULAR     3.00       0          0          0          1
BARSCRN          TRAPEZOIDAL  8.00       14.00      0          0          1
LU35B-S          CIRCULAR     3.50       0          0          0          1
LV2              CIRCULAR     3.00       0          0          0          1
LCH1             CIRCULAR     5.00       0          0          0          1
LVHPS1           CIRCULAR     2.00       0          0          0          1
LVHPS2           CIRCULAR     3.00       0          0          0          1
LBAR             CIRCULAR     4.00       0          0          0          1
LEXIT            CIRCULAR     3.00       0          0          0          1
GLK-10           RECT_CLOSED  2.00       0          0          0          
GLK2             RECT_CLOSED  0          0          0          0          
GLP2             RECT_CLOSED  0          0          0          0          
GLW-S2           RECT_CLOSED  0          0          0          0          
GLZ1             RECT_CLOSED  0          0          0          0          
GLAA15           RECT_CLOSED  0          0          0          0          
LGJ2             RECT_CLOSED  0          0          0          0          
GLV44            RECT_CLOSED  0          0          0          0          
GLV17            RECT_CLOSED  0          0          0          0          
GLAA1            RECT_CLOSED  0          0          0          0          
GLW2             RECT_CLOSED  0          0          0          0          
GLW8             RECT_CLOSED  0          0          0          0          
GLT16            RECT_CLOSED  0          0          0          0          
GLU4             RECT_CLOSED  0          0          0          0          

[LOSSES]
;;Link           Inlet      Outlet     Average    Flap Gate
;;-------------- ---------- ---------- ---------- ----------
LV41             0          0          0          NO
LV34             0          0          0          NO
LV15             0          0          0          NO
LU35B            0          0          0          NO
OLU35B-S         0          0          0          NO
LU4              0          0          0          NO
LT14             0          0          0          NO
LWWTP1           0          0          0          NO
LAA9             0          0          0          NO
LAA1-S           0          0          0          NO
LK7              0          0          0          NO
LI1-S            0          0          0          NO
LK2-S            0          0          0          NO
LMARPS           0          0          0          NO
LW8              0          0          0          NO
LW50-S           0          0          0          NO
LW-S2            0          0          0          NO
LW43             0          0          0          NO
LW4-S            0          0          0          NO
LW2              0          0          0          NO
RWEIR2           0          0          0          NO
LU34A            0          0          0          NO
LU33             0          0          0          NO
LAA3-S           0          0          0          NO
LAA14-2          0          0          0          NO
LW33-2           0          0          0          NO
WWEIR1           0          0          0          NO
LFORTPS1         0          0          0          NO
WWEIR3           0          0          0          NO
LAA3-1           0          0          0          NO
LK2              0          0          0          NO
LW33-1           0          0          0          NO
LCH1-S           0          0          0          NO
LAA6-S           0          0          0          NO
LCH1-2           0          0          0          NO
RWEIR1           0          0          0          NO
LV2-S            0          0          0          NO
LT6-S2           0          0          0          NO
LT6-S1           0          0          0          NO
LAA6             0          0          0          NO
LAA3             0          0          0          NO
LAA1             0          0          0          NO
LT6-1            0          0          0          NO
LT6-2            0          0          0          NO
LI1              0          0          0          NO
LW50             0          0          0          NO
LW4              0          0          0          NO
SIP1             0          0          0          NO
440              0          0          0          NO
LAA14-1          0          0          0          NO
LV25A            0          0          0          NO
48               0          0          0          NO
LV14             0          0          0          NO
LV24             0          0          0          NO
LV17             0          0          0          NO
BARSCRN          0          0          0          NO
LU35B-S          0          0          0          NO
LV2              0          0          0          NO
LCH1             0          0          0          NO
LVHPS1           0          0          0          NO
LVHPS2           0          0          0          NO
LBAR             0          0          0          NO
LEXIT            0          0          0          NO

[INFLOWS]
;;Node           Constituent  Time Series      Type     Mfactor  Sfactor  Baseline Pattern
;;-------------- ------------ ---------------- -------- -------- -------- -------- --------
V44              FLOW         ""               FLOW     1.0      1.0      1.10
V17              FLOW         ""               FLOW     1.0      1.0      0.09
U4               FLOW         ""               FLOW     1.0      1.0      0.11
T16              FLOW         ""               FLOW     1.0      1.0      0.33
AA15             FLOW         ""               FLOW     1.0      1.0      0.65
J2               FLOW         ""               FLOW     1.0      1.0      0.10
AA1              FLOW         ""               FLOW     1.0      1.0      0.20
K10              FLOW         ""               FLOW     1.0      1.0      0.75
W8               FLOW         ""               FLOW     1.0      1.0      0.29
P2               FLOW         ""               FLOW     1.0      1.0      0.51
K2               FLOW         ""               FLOW     1.0      1.0      0.13
W2               FLOW         ""               FLOW     1.0      1.0      2.02
Z1               FLOW         ""               FLOW     1.0      1.0      0.20
W-S2             FLOW         ""               FLOW     1.0      1.0      0.62

[COORDINATES]
;;Node           X-Coord            Y-Coord
;;-------------- ------------------ ------------------
V44              -1702.36           13422.64          
V41              -3172.36           13172.64          
V34              -3472.36           11657.64          
V17              -4232.36           8797.64           
BP006-1          -2532.36           11242.64          
V14              -2642.36           9272.64           
V2               -2277.36           8242.64           
U35B             -3577.36           8042.64           
U33              -4437.36           7357.64           
U4               -4617.36           5622.64           
T6               -4742.36           4612.64           
T16              -6617.36           1137.64           
T14              -5777.36           2882.64           
WWTP1            -5332.36           4977.64           
AA15             -12082.36          5107.64           
VHPS             -10017.36          4847.64           
J2               -11177.36          3462.64           
AA8A             -9692.36           4892.64           
AA3              -7822.36           4867.64           
AA1              -7037.36           4757.64           
K10              -11322.36          10737.64          
K7               -10517.36          10652.64          
I1               -8817.36           10712.64          
W33              -6942.36           10732.64          
W20              -6722.36           8427.64           
W8               -6857.36           7302.64           
P2               -5662.36           14802.64          
W50              -5677.36           12722.64          
W43              -6087.36           11597.64          
K2               -7682.36           10922.64          
W4               -6487.36           6712.64           
W2               -6492.36           5762.64           
FORTPS1          -4402.36           10877.64          
BP006-2          -1227.36           11012.64          
U34B             -3382.36           7097.64           
U35A             -3867.36           6802.64           
AA6              -8587.36           4942.64           
AA9              -10707.36          3722.64           
AA14             -11257.36          5192.64           
Z1               -10717.36          6097.64           
W-S2             -6912.36           11687.64          
W33-2            -6012.36           10442.64          
RETBAS           -8992.36           3757.64           
RETBAS2          -7787.36           3397.64           
CH1              -6122.36           5032.64           
GRIT1            -6667.36           3137.64           
K2-S             -8326.27           10808.73          
AA6-S            -9206.27           4923.73           
AA3-S            -8241.27           4913.73           
AA1-S            -7451.27           4833.73           
T6-S1            -5041.27           3753.73           
T6-S2            -4661.27           5098.73           
I1-S             -9596.27           10688.73          
W50-S            -5672.36           13622.64          
W4-S             -7001.27           6983.73           
exit1            -7577.36           2217.64           
K10-G            -11827.36          12662.64          
GP2              -6802.36           14592.64          
GW-S2            -7892.36           12762.64          
GZ1              -11747.36          6777.64           
AA14-S           -11601.27          5158.73           
GAA15            -12622.36          4632.64           
GJ2              -11907.36          3107.64           