;; SWMM5 .inp converted from XPSWMM .xp file
;; Generated by XPSWMM Card Reader
;; Source format: XP_CARD | Original title: BASIN: Q   Proposed  DESIGN STORM: 25 yr. - 24 hr.

[TITLE]
;;Project Title/Notes
BASIN: Q   Proposed  DESIGN STORM: 25 yr. - 24 hr.

[OPTIONS]
FLOW_UNITS           CFS
INFILTRATION         HORTON
FLOW_ROUTING         DYNWAVE
LINK_OFFSETS         DEPTH
MIN_SLOPE            0.0
ALLOW_PONDING        NO
SKIP_STEADY_STATE    NO
ROUTING_STEP         00:00:02
VARIABLE_STEP        0.75
INERTIAL_DAMPING     NONE
NORMAL_FLOW_LIMITED  BOTH
MAX_TRIALS           10

[STORAGE]
;;Name           Elev       MaxDepth   InitDepth  Shape      Curve/Params
;;-------------- ---------- ---------- ---------- ---------- ----------
0                120.00     0          3.30       FUNCTIONAL 0 0          0
0                200.00     0          0          FUNCTIONAL 50.00 0          0
0                120.00     -15.70     2.00       FUNCTIONAL 0 0          0
0                200.00     0          0.83       FUNCTIONAL 50.00 0          0
0                120.00     0          1.75       FUNCTIONAL 0 0          0
0                200.00     0          0.50       FUNCTIONAL 50.00 0          0
0                120.00     0          4.20       FUNCTIONAL 0 0          0
0                200.00     0          0          FUNCTIONAL 50.00 0          0
0                200.00     0          0          FUNCTIONAL 50.00 0          0
0                120.00     0          4.00       FUNCTIONAL 0 0          0
0                120.00     0          1.00       FUNCTIONAL 0 0          0
0                200.00     0          0          FUNCTIONAL 50.00 0          0
0                120.00     0          2.00       FUNCTIONAL 0 0          0
0                200.00     0          0          FUNCTIONAL 50.00 0          0
0                120.00     0          0          FUNCTIONAL 0 0          0
0                200.00     0          0          FUNCTIONAL 50.00 0          0
0                120.00     0          0          FUNCTIONAL 0 0          0
0                200.00     0          0          FUNCTIONAL 50.00 0          0
0                120.00     0          0          FUNCTIONAL 0 0          0
0                200.00     0          0.42       FUNCTIONAL 50.00 0          0
0                120.00     0          0          FUNCTIONAL 0 0          0
0                120.00     0          2.80       FUNCTIONAL 0 0          0
0                200.00     0          0          FUNCTIONAL 50.00 0          0
0                120.00     0          2.20       FUNCTIONAL 0 0          0
0                200.00     0          0          FUNCTIONAL 50.00 0          0

[CONDUITS]
;;Name           From             To               Length     Roughness  InOffset   OutOffset  InitFlow   MaxFlow
;;-------------- ---------------- ---------------- ---------- ---------- ---------- ---------- ---------- ----------
426              0                0                170.00     0.0160     98.67      98.33      0          0
430              0                0                750.00     0.0330     95.80      95.70      0          0
443              0                0                50.00      0.2000     107.43     107.85     0          0
441              0                0                50.00      0.2000     100.74     100.00     0          0
439              0                0                50.00      0.2000     103.06     99.00      0          0
437              0                0                50.00      0.2000     97.27      97.00      0          0
432              0                0                50.00      0.2000     95.31      95.00      0          0
435              0                0                50.00      0.2000     98.87      98.00      0          0
431              0                0                50.00      0.2000     99.39      94.80      0          0
425              0                0                50.00      0.2000     98.00      97.70      0          0
427              0                0                50.00      0.2000     96.17      97.00      0          0
429              0                0                50.00      0.2000     96.75      97.25      0          0
447              0                0                50.00      0.2000     99.50      96.20      0          0
449              0                0                50.00      0.2000     99.00      96.80      0          0
1702000          1702100          0                615.00     0.0132     98.00      96.00      0          0
1702002          1702102          0                140.00     0.0140     97.00      96.00      0          0
1701002          1701102          1701003          705.00     0.0140     97.25      97.00      0          0
1702004          1702104          0                470.00     0.0250     99.00      97.00      0          0
1702006          1702106          0                400.00     0.0250     100.00     99.00      0          0
1702008          1702108          1702009          300.00     0.0130     107.85     106.72     0          0
1702010          1702110          0                290.00     0.0130     109.40     108.00     0          0
1700015          1700014          1700014o         620.00     0.0140     96.80      96.20      0          0
1700013          1700012          1700012o         320.00     0.0140     96.20      96.00      0          0

[WEIRS]
;;Name           From             To               Type       CrestHt    Qcoeff     Gated    EndCon   EndCoeff   Surcharge
;;-------------- ---------------- ---------------- ---------- ---------- ---------- -------- -------- ---------- ----------
1700010          1700011          1700111          TRANSVERSE 105.51     1.840      NO       0        0          YES

[XSECTIONS]
;;Link           Shape        Geom1      Geom2      Geom3      Geom4      Barrels
;;-------------- ------------ ---------- ---------- ---------- ---------- ----------
426              CIRCULAR     3.00       7.00       0          0          1
430              TRAPEZOIDAL  12.00      15.00      0          0          1
443              RECT_CLOSED  6.00       0.20       0          0          1
441              RECT_CLOSED  10.00      0.20       0          0          1
439              CUSTOM       6.00       0.20       0          0          1
437              CUSTOM       10.00      0.20       0          0          1
432              CUSTOM       10.00      0.20       0          0          1
435              RECT_CLOSED  6.00       0.20       0          0          1
431              RECT_CLOSED  6.00       0.20       0          0          1
425              RECT_CLOSED  6.00       0.20       0          0          1
427              RECT_CLOSED  6.00       0.20       0          0          1
429              RECT_CLOSED  6.00       0.20       0          0          1
447              CUSTOM       6.00       0.20       0          0          1
449              RECT_CLOSED  6.00       0.20       0          0          1
1702000          CIRCULAR     4.00       0          0          0          1
1702002          RECT_CLOSED  6.00       8.00       0          0          1
1701002          CIRCULAR     3.50       0          0          0          1
1702004          CIRCULAR     6.00       0          0          0          1
1702006          CIRCULAR     5.50       0          0          0          1
1702008          CIRCULAR     2.50       0          0          0          1
1702010          CIRCULAR     2.00       0          0          0          1
1700015          RECT_CLOSED  8.00       8.00       0          0          1
1700013          RECT_CLOSED  8.00       8.00       0          0          1
1700010          RECT_OPEN    0          50.00      0          0          

[LOSSES]
;;Link           Inlet      Outlet     Average    Flap Gate
;;-------------- ---------- ---------- ---------- ----------
426              0          0          0          NO
430              0          0          0          NO
443              0          0          0          NO
441              0          0          0          NO
439              0          0          0          NO
437              0          0          0          NO
432              0          0          0          NO
435              0          0          0          NO
431              0          0          0          NO
425              0          0          0          NO
427              0          0          0          NO
429              0          0          0          NO
447              0          0          0          NO
449              0          0          0          NO
1702000          0          0          0          NO
1702002          0          0          0          NO
1701002          0          0          0          NO
1702004          0          0          0          NO
1702006          0          0          0          NO
1702008          0          0          0          NO
1702010          0          0          0          NO
1700015          0          0          0          NO
1700013          0          0          0          NO

[COORDINATES]
;;Node           X-Coord            Y-Coord
;;-------------- ------------------ ------------------
0                397.91             71.19             
0                391.75             73.45             
0                403.37             71.47             
0                402.71             65.39             
0                408.67             71.40             
0                406.96             64.95             
0                397.74             62.38             
0                392.47             65.96             
0                395.54             51.76             
0                397.66             55.82             
0                403.12             55.89             
0                409.23             58.43             
0                392.36             55.89             
0                390.99             51.62             
0                386.73             55.96             
0                385.21             50.96             
0                381.68             55.96             
0                380.98             51.35             
0                376.72             56.10             
0                376.17             51.97             
0                371.75             56.03             
0                397.58             49.23             
0                406.65             51.30             
0                397.41             42.30             
0                406.07             45.03             

[MAP]
DIMENSIONS 371.75 42.30 409.23 73.45
Units      None

[REPORT]
INPUT            YES
SUBCATCHMENTS    ALL
NODES            ALL
LINKS            ALL



