;; SWMM5 .inp converted from XPSWMM .xp file
;; Generated by XPSWMM Card Reader
;; Source format: XP_CARD | Original title: (none)

[TITLE]
;;Project Title/Notes
Converted from XPSWMM .xp file

[OPTIONS]
FLOW_UNITS           CFS
INFILTRATION         HORTON
FLOW_ROUTING         DYNWAVE
LINK_OFFSETS         DEPTH
MIN_SLOPE            0.0
ALLOW_PONDING        NO
SKIP_STEADY_STATE    NO
INERTIAL_DAMPING     PARTIAL
NORMAL_FLOW_LIMITED  BOTH

[JUNCTIONS]
;;Name           Elev       MaxDepth   InitDepth  SurDepth   Aponded
;;-------------- ---------- ---------- ---------- ---------- ----------
LC001            0          0          0          0          0
LC002            0          0          0          0          0
LC003            0          0          0          0          0
LC004            0          0          0          0          0
LC005            0          0          0          0          0
LC006            0          0          0          0          0
LC007            0          0          0          0          0
LC008            0          0          0          0          0
LC009            0          0          0          0          0
LC010            0          0          0          0          0
LC011            0          0          0          0          0
LC012            0          0          0          0          0
LC013            0          0          0          0          0
LC014            0          0          0          0          0
LC015            0          0          0          0          0
LC016            0          0          0          0          0
LC017            0          0          0          0          0
LC018            0          0          0          0          0
LC025            0          0          0          0          0
LC026            0          0          0          0          0
LC027            0          0          0          0          0
LC028            0          0          0          0          0
LC029            0          0          0          0          0
LC030            0          0          0          0          0
LC031            0          0          0          0          0
LC032            0          0          0          0          0
LC033            0          0          0          0          0
LC049            0          0          0          0          0
LC050            0          0          0          0          0
LC051            0          0          0          0          0
LC052            0          0          0          0          0
LC053            0          0          0          0          0
LC054            0          0          0          0          0
LC055            0          0          0          0          0
LC056            0          0          0          0          0
LC057            0          0          0          0          0
LC058            0          0          0          0          0
LC059            0          0          0          0          0
LC060            0          0          0          0          0
LC061            0          0          0          0          0
LC062            0          0          0          0          0
LC063            0          0          0          0          0
LC064            0          0          0          0          0
LC065            0          0          0          0          0
LC066            0          0          0          0          0
LC067            0          0          0          0          0
LC068            0          0          0          0          0
LC069            0          0          0          0          0
LC070            0          0          0          0          0
LC071            0          0          0          0          0
LC072            0          0          0          0          0
LC080            0          0          0          0          0
LC081            0          0          0          0          0
LC082            0          0          0          0          0
LC083            0          0          0          0          0
LC084            0          0          0          0          0
LC085            0          0          0          0          0
LC095            0          0          0          0          0
LC096            0          0          0          0          0
LC097            0          0          0          0          0
LC098            0          0          0          0          0
LC099            0          0          0          0          0
LC100            0          0          0          0          0
LC101            0          0          0          0          0
LC102            0          0          0          0          0
LC103            0          0          0          0          0
LC104            0          0          0          0          0
LC105            0          0          0          0          0
LC106            0          0          0          0          0
LC110            0          0          0          0          0
LC111            0          0          0          0          0
LC112            0          0          0          0          0
LC113            0          0          0          0          0
LC114            0          0          0          0          0
LC115            0          0          0          0          0
LC116            0          0          0          0          0
LC118            0          0          0          0          0
LC119            0          0          0          0          0
LC120            0          0          0          0          0
LC123            0          0          0          0          0
LC125            0          0          0          0          0
LC127            0          0          0          0          0
LC128            0          0          0          0          0
LC129            0          0          0          0          0
LC130            0          0          0          0          0
LC131            0          0          0          0          0
LC132            0          0          0          0          0
LC133            0          0          0          0          0
LC135            0          0          0          0          0
LC136            0          0          0          0          0
LC137            0          0          0          0          0
LC138            0          0          0          0          0
LC139            0          0          0          0          0
LC140            0          0          0          0          0
LC142            0          0          0          0          0
LC143            0          0          0          0          0
LC144            0          0          0          0          0
LC145            0          0          0          0          0
LC146            0          0          0          0          0
LC147            0          0          0          0          0
LC148            0          0          0          0          0
LC149            0          0          0          0          0
LC150            0          0          0          0          0
LC152            0          0          0          0          0
LC153            0          0          0          0          0
LC160            0          0          0          0          0
LC161            0          0          0          0          0
LC162            0          0          0          0          0
LC163            0          0          0          0          0
LC164            0          0          0          0          0
LC165            0          0          0          0          0
LC166            0          0          0          0          0
LC167            0          0          0          0          0
LC168            0          0          0          0          0
LC169            0          0          0          0          0
LC170            0          0          0          0          0
LC175            0          0          0          0          0
LC176            0          0          0          0          0
LC177            0          0          0          0          0
LC178            0          0          0          0          0
LC179            0          0          0          0          0
LC180            0          0          0          0          0
LC186            0          0          0          0          0
LC187            0          0          0          0          0
LC194            0          0          0          0          0
LC195            0          0          0          0          0
LC196            0          0          0          0          0
LC197            0          0          0          0          0
LC199            0          0          0          0          0
LC200            0          0          0          0          0
LC201            0          0          0          0          0
LC202            0          0          0          0          0
LC203            0          0          0          0          0
LC225            0          0          0          0          0
LC226            0          0          0          0          0
LC227            0          0          0          0          0
LC228            0          0          0          0          0
LC229            0          0          0          0          0
LC230            0          0          0          0          0
LC231            0          0          0          0          0
LC232            0          0          0          0          0
LC233            0          0          0          0          0
LC234            0          0          0          0          0
LC235            0          0          0          0          0
LC236            0          0          0          0          0
LC245            0          0          0          0          0
LC246            0          0          0          0          0
LC247            0          0          0          0          0
LC248            0          0          0          0          0
LC249            0          0          0          0          0
LC250            0          0          0          0          0
LC251            0          0          0          0          0
LC252            0          0          0          0          0
LC253            0          0          0          0          0
LC254            0          0          0          0          0
LC256            0          0          0          0          0
LC266            0          0          0          0          0
LC267            0          0          0          0          0
LC268            0          0          0          0          0
LC269            0          0          0          0          0
LC270            0          0          0          0          0
LC271            0          0          0          0          0
LC272            0          0          0          0          0
LC273            0          0          0          0          0
LC274            0          0          0          0          0
LC275            0          0          0          0          0
LC276            0          0          0          0          0
LC280            0          0          0          0          0
LC281            0          0          0          0          0
LC282            0          0          0          0          0
LC283            0          0          0          0          0
LC284            0          0          0          0          0
LC285            0          0          0          0          0
LC286            0          0          0          0          0
LC287            0          0          0          0          0
LC288            0          0          0          0          0
LC289            0          0          0          0          0
LC290            0          0          0          0          0
LC291            0          0          0          0          0
LC292            0          0          0          0          0
LC293            0          0          0          0          0
LC294            0          0          0          0          0
LC295            0          0          0          0          0
LC296            0          0          0          0          0
LC297            0          0          0          0          0
LC298            0          0          0          0          0
LC299            0          0          0          0          0
LC300            0          0          0          0          0
LC301            0          0          0          0          0
LC302            0          0          0          0          0
LC320            0          0          0          0          0
LC321            0          0          0          0          0
LC322            0          0          0          0          0
LC323            0          0          0          0          0
LC324            0          0          0          0          0
LC325            0          0          0          0          0
LC326            0          0          0          0          0
LC328            0          0          0          0          0
LC329            0          0          0          0          0
LC330            0          0          0          0          0
LC331            0          0          0          0          0
LC333            0          0          0          0          0
LC334            0          0          0          0          0
LC335            0          0          0          0          0
LC336            0          0          0          0          0
LC337            0          0          0          0          0
LC338            0          0          0          0          0
LC339            0          0          0          0          0
LC340            0          0          0          0          0
LC341            0          0          0          0          0
LC342            0          0          0          0          0
LC343            0          0          0          0          0
LC345            0          0          0          0          0
LC346            0          0          0          0          0
LC347            0          0          0          0          0
LC348            0          0          0          0          0
LC349            0          0          0          0          0
LC350            0          0          0          0          0
LC351            0          0          0          0          0
LC352            0          0          0          0          0
LC353            0          0          0          0          0
LC354            0          0          0          0          0
LC355            0          0          0          0          0
LC356            0          0          0          0          0
LC357            0          0          0          0          0
LC360            0          0          0          0          0
LC361            0          0          0          0          0
LC363            0          0          0          0          0
LC364            0          0          0          0          0
LC365            0          0          0          0          0
LC366            0          0          0          0          0
LC367            0          0          0          0          0
LC368            0          0          0          0          0
LC369            0          0          0          0          0
LC370            0          0          0          0          0
LC371            0          0          0          0          0
LC372            0          0          0          0          0
LC380            0          0          0          0          0
LC381            0          0          0          0          0
LC382            0          0          0          0          0
LC383            0          0          0          0          0
LC384            0          0          0          0          0
LC385            0          0          0          0          0
LC386            0          0          0          0          0
LC387            0          0          0          0          0
LC388            0          0          0          0          0
LC389            0          0          0          0          0
LC390            0          0          0          0          0
LC391            0          0          0          0          0
LC392            0          0          0          0          0
LC393            0          0          0          0          0
LC394            0          0          0          0          0
LC395            0          0          0          0          0
LC396            0          0          0          0          0
LC397            0          0          0          0          0
LC398            0          0          0          0          0
LC410            0          0          0          0          0
LC411            0          0          0          0          0
LC412            0          0          0          0          0
LC413            0          0          0          0          0
LC414            0          0          0          0          0
LC415            0          0          0          0          0
LC416            0          0          0          0          0
LC417            0          0          0          0          0
LC418            0          0          0          0          0
LC419            0          0          0          0          0
LC425            0          0          0          0          0
LC426            0          0          0          0          0
LC427            0          0          0          0          0
LC428            0          0          0          0          0
LC429            0          0          0          0          0
LC430            0          0          0          0          0
LC431            0          0          0          0          0
LC435            0          0          0          0          0
LC436            0          0          0          0          0
LC437            0          0          0          0          0
LC438            0          0          0          0          0
LC439            0          0          0          0          0
LC440            0          0          0          0          0
LC441            0          0          0          0          0
LC442            0          0          0          0          0
LC443            0          0          0          0          0
LC444            0          0          0          0          0
LC445            0          0          0          0          0
LC446            0          0          0          0          0
LC447            0          0          0          0          0
LC450            0          0          0          0          0
LC451            0          0          0          0          0
LC452            0          0          0          0          0
LC460            0          0          0          0          0
LC461            0          0          0          0          0
LC462            0          0          0          0          0
LC463            0          0          0          0          0
LC464            0          0          0          0          0
LC465            0          0          0          0          0
LC466            0          0          0          0          0
LC467            0          0          0          0          0
LC468            0          0          0          0          0
LC700            0          0          0          0          0
LC701            0          0          0          0          0
LC702            0          0          0          0          0
LC703            0          0          0          0          0
LC704            0          0          0          0          0
LC706            0          0          0          0          0
LC707            0          0          0          0          0
LC708            0          0          0          0          0
LC709            0          0          0          0          0
LC710            0          0          0          0          0
LC711            0          0          0          0          0
LC712            0          0          0          0          0
LC713            0          0          0          0          0
LC714            0          0          0          0          0
LC715            0          0          0          0          0
LC716            0          0          0          0          0
LC717            0          0          0          0          0
LC718            0          0          0          0          0
LC719            0          0          0          0          0
LC720            0          0          0          0          0
LC725            0          0          0          0          0
LC726            0          0          0          0          0
LC730            0          0          0          0          0
LC731            0          0          0          0          0
LC732            0          0          0          0          0
LC733            0          0          0          0          0
LC740            0          0          0          0          0
LC741            0          0          0          0          0
LC750            0          0          0          0          0
LC751            0          0          0          0          0
LC752            0          0          0          0          0
LC753            0          0          0          0          0
LC754            0          0          0          0          0
LC765            0          0          0          0          0
LC766            0          0          0          0          0
LC767            0          0          0          0          0
LC770            0          0          0          0          0
LC771            0          0          0          0          0
LC772            0          0          0          0          0
LC780            0          0          0          0          0
LC781            0          0          0          0          0
LC782            0          0          0          0          0
LC783            0          0          0          0          0
LC790            0          0          0          0          0
LC791            0          0          0          0          0
LC792            0          0          0          0          0
LC793            0          0          0          0          0
LC801            0          0          0          0          0
LC802            0          0          0          0          0
LC810            0          0          0          0          0
LC811            0          0          0          0          0
LC812            0          0          0          0          0
LC813            0          0          0          0          0
LC814            0          0          0          0          0
LC815            0          0          0          0          0
LC816            0          0          0          0          0
LC817            0          0          0          0          0
LC820            0          0          0          0          0
LC821            0          0          0          0          0
LC825            0          0          0          0          0
LC826            0          0          0          0          0
LC827            0          0          0          0          0
LC840            0          0          0          0          0
LC841            0          0          0          0          0
LC842            0          0          0          0          0
LC850            0          0          0          0          0
LC851            0          0          0          0          0
LC860            0          0          0          0          0
LC861            0          0          0          0          0
LC862            0          0          0          0          0
LC863            0          0          0          0          0
LC864            0          0          0          0          0
LC870            0          0          0          0          0
LC871            0          0          0          0          0
LC872            0          0          0          0          0
LC873            0          0          0          0          0
LC874            0          0          0          0          0
LC885            0          0          0          0          0
LC886            0          0          0          0          0
LC887            0          0          0          0          0
LC888            0          0          0          0          0
LC889            0          0          0          0          0
LC890            0          0          0          0          0
LC891            0          0          0          0          0
LC892            0          0          0          0          0
LC893            0          0          0          0          0
LC900            0          0          0          0          0
LC901            0          0          0          0          0
LC902            0          0          0          0          0
LC903            0          0          0          0          0
LC904            0          0          0          0          0
LC905            0          0          0          0          0
LC906            0          0          0          0          0
LC920            0          0          0          0          0
LC922            0          0          0          0          0
LC923            0          0          0          0          0
LC924            0          0          0          0          0
LC925            0          0          0          0          0
LC926            0          0          0          0          0
LC927            0          0          0          0          0
LC928            0          0          0          0          0
LC936            0          0          0          0          0
LC937            0          0          0          0          0
LC938            0          0          0          0          0
LC939            0          0          0          0          0
LC945            0          0          0          0          0
LC946            0          0          0          0          0
LC947            0          0          0          0          0
LC948            0          0          0          0          0
LC955            0          0          0          0          0
LC956            0          0          0          0          0
LC957            0          0          0          0          0
LC958            0          0          0          0          0
LC959            0          0          0          0          0
LC960            0          0          0          0          0
LC961            0          0          0          0          0
LC965            0          0          0          0          0
LC966            0          0          0          0          0
LC967            0          0          0          0          0
LC975            0          0          0          0          0
LC976            0          0          0          0          0
LC977            0          0          0          0          0
LC978            0          0          0          0          0
LC980            0          0          0          0          0
LC981            0          0          0          0          0
LC982            0          0          0          0          0

[CONDUITS]
;;Name           From             To               Length     Roughness  InOffset   OutOffset  InitFlow   MaxFlow
;;-------------- ---------------- ---------------- ---------- ---------- ---------- ---------- ---------- ----------
LC001LC049       LC001            LC049            0          0.0110     0          0          0          0
LC002LC004       LC002            LC004            0          0.0110     0          0          0          0
LC003LC002       LC003            LC002            0          0.0110     0          0          0          0
LC004LC001       LC004            LC001            0          0.0110     0          0          0          0
LC004LC003       LC004            LC003            0          0.0110     0          0          0          0
LC005LC004       LC005            LC004            0          0.0110     0          0          0          0
LC006LC005       LC006            LC005            0          0.0110     0          0          0          0
LC007LC006       LC007            LC006            0          0.0110     0          0          0          0
LC008LC007       LC008            LC007            0          0.0110     0          0          0          0
LC009LC008       LC009            LC008            0          0.0110     0          0          0          0
LC010LC009       LC010            LC009            0          0.0110     0          0          0          0
LC011LC010       LC011            LC010            0          0.0110     0          0          0          0
LC012LC011       LC012            LC011            0          0.0110     0          0          0          0
LC013LC012       LC013            LC012            0          0.0110     0          0          0          0
LC014LC013       LC014            LC013            0          0.0110     0          0          0          0
LC015LC014       LC015            LC014            0          0.0110     0          0          0          0
LC016LC015       LC016            LC015            0          0.0110     0          0          0          0
LC017LC016       LC017            LC016            0          0.0110     0          0          0          0
LC018LC017       LC018            LC017            0          0.0110     0          0          0          0
LC025LC012       LC025            LC012            0          0.0110     0          0          0          0
LC026LC025       LC026            LC025            0          0.0110     0          0          0          0
LC027LC026       LC027            LC026            0          0.0110     0          0          0          0