;; SWMM5 .inp converted from XPSWMM .xp file
;; Generated by XPSWMM Card Reader
;; Source format: XP_CARD | Original title: (none)

[TITLE]
;;Project Title/Notes
Converted from XPSWMM .xp file

[OPTIONS]
FLOW_UNITS           CFS
INFILTRATION         HORTON
FLOW_ROUTING         DYNWAVE
LINK_OFFSETS         DEPTH
MIN_SLOPE            0.0
ALLOW_PONDING        NO
SKIP_STEADY_STATE    NO
ROUTING_STEP         00:00:60
VARIABLE_STEP        0.75
INERTIAL_DAMPING     PARTIAL
NORMAL_FLOW_LIMITED  BOTH
MAX_TRIALS           50
HEAD_TOLERANCE       0.0033

[JUNCTIONS]
;;Name           Elev       MaxDepth   InitDepth  SurDepth   Aponded
;;-------------- ---------- ---------- ---------- ---------- ----------
JNORTH           150.00     0          0          0          0
J5195            150.00     0          0          0          0
J2182            150.00     0          0          0          0
PVTS01           150.00     0          0          0          0
J182             150.00     0          0          0          0
J192             150.00     0          0          0          0
J2192            150.00     0          0          0          0
J3192            150.00     0          0          0          0
J22              150.00     0          0          0          0
J2019            150.00     0          0          0          0
J3019            150.00     0          0          0          0
J4019            150.00     0          0          0          0
J19              150.00     0          0          0          0
J168             150.00     0          0          0          0
J2168            150.00     0          0          0          0
J2187A           150.00     0          0          0          0
J3187A           150.00     0          0          0          0
J5187A           150.00     0          0          0          0
J187A            150.00     0          0          0          0
J187C            150.00     0          0          0          0
J2187B           150.00     0          0          0          0
J187B            150.00     0          0          0          0
J105             150.00     0          0          0          0
J2105            150.00     0          0          0          0
J111             150.00     0          0          0          0
J2111            150.00     0          0          0          0
J3111            150.00     0          0          0          0
J2143            150.00     0          0          0          0
J3175            150.00     0          0          0          0
J2026            150.00     0          0          0          0
J2163            150.00     0          0          0          0
J2113            150.00     0          0          0          0
J139             150.00     0          0          0          0
J2109            150.00     0          0          0          0
J163             150.00     0          0          0          0
J109             150.00     0          0          0          0
J129             150.00     0          0          0          0
J2129            150.00     0          0          0          0
J3120            150.00     0          0          0          0
J2120            150.00     0          0          0          0
J120             150.00     0          0          0          0
J4160            150.00     0          0          0          0
J2128            150.00     0          0          0          0
J2149            150.00     0          0          0          0
J128             150.00     0          0          0          0
J126             150.00     0          0          0          0
J2126            150.00     0          0          0          0
J127             150.00     0          0          0          0
J2125            150.00     0          0          0          0
J125             150.00     0          0          0          0
J149             150.00     0          0          0          0
J3142            150.00     0          0          0          0
J2142            150.00     0          0          0          0
J3204            150.00     0          0          0          0
J142             150.00     0          0          0          0
J3669            150.00     0          0          0          0
J3544            150.00     0          0          0          0
J3685            150.00     0          0          0          0
J7658            150.00     0          0          0          0
J2579            150.00     0          0          0          0
J2683            150.00     0          0          0          0
J41047           150.00     0          0          0          0
J2762            150.00     0          0          0          0
J3628            150.00     0          0          0          0
J5628            150.00     0          0          0          0
J6509            150.00     0          0          0          0
J3168            150.00     0          0          0          0
JCEAST2          150.00     0          0          0          0
J151             150.00     0          0          0          0
J2187D           150.00     0          0          0          0
J2187C           150.00     0          0          0          0
J3022            10.00      0          0          0          0
J4022            10.00      0          0          0          0
J2022            10.00      0          0          0          0
J683             150.00     0          0          0          0
J579             150.00     0          0          0          0
J2896            150.00     0          0          0          0
J2524            150.00     0          0          0          0
J896             150.00     0          0          0          0
J524             150.00     0          0          0          0
J2554            150.00     0          0          0          0
J554             150.00     0          0          0          0
J4869            150.00     0          0          0          0
J4809            150.00     0          0          0          0
J5809            150.00     0          0          0          0
J7829            150.00     0          0          0          0
J9812            150.00     0          0          0          0
J9829            150.00     0          0          0          0
J3571            150.00     0          0          0          0
J4571            150.00     0          0          0          0
J5571            150.00     0          12.00      0          0
M-107            150.00     0          0          0          0
M-121            150.00     0          0          0          0
M-120            150.00     0          0          0          0
J4187A           150.00     0          0          0          0
M-43             150.00     0          0          0          0
J6195            150.00     0          0          0          0
JCEAST1          150.00     0          0          0          0
J938             150.00     0          0          0          0
J2398            150.00     0          0          0          0
J6938            150.00     0          0          0          0
J198             150.00     0          0          0          0
J2201            150.00     0          0          0          0
J196             150.00     0          0          0          0
J2196            150.00     0          0          0          0
J3938            150.00     0          0          0          0
J4938            150.00     0          0          0          0
J201             150.00     0          0          0          0
J188             150.00     0          0          0          0
J123             150.00     0          0          0          0
J145             150.00     0          0          0          0
J2161            150.00     0          0          0          0
J4161            150.00     0          0          0          0
J2199            150.00     0          0          0          0
J2123            150.00     0          0          0          0
J2172            150.00     0          0          0          0
J172             150.00     0          0          0          0
J3161            150.00     0          0          0          0
J161             150.00     0          0          0          0
J199             150.00     0          0          0          0
J2166            150.00     0          0          0          0
J166             150.00     0          0          0          0
J4197            150.00     0          0          0          0
J2014            150.00     0          0          0          0
J2165            150.00     0          0          0          0
J2108            150.00     0          0          0          0
J165             150.00     0          0          0          0
J108             150.00     0          0          0          0
J14              150.00     0          0          0          0
J197             150.00     0          0          0          0
J2197            150.00     0          0          0          0
J110             150.00     0          0          0          0
J2169            150.00     0          0          0          0
J4158            150.00     0          0          0          0
J150             150.00     0          0          0          0
J3162            150.00     0          0          0          0
J2148            150.00     0          0          0          0
J169             150.00     0          0          0          0
PVT10065         150.00     0          0          0          0
J3158            150.00     0          0          0          0
J158             150.00     0          0          0          0
J2119            150.00     0          0          0          0
J148             150.00     0          0          0          0
J202             150.00     0          0          0          0
J203             150.00     0          0          0          0
J119             150.00     0          0          0          0
J2116            150.00     0          0          0          0
J3116            150.00     0          0          0          0
J124             150.00     0          0          0          0
J116             150.00     0          0          0          0
J140             150.00     0          0          0          0
J143             150.00     0          0          0          0
J2147            150.00     0          0          0          0
J2175            150.00     0          0          0          0
J147             150.00     0          0          0          0
J175             150.00     0          0          0          0
J159             150.00     0          0          0          0
J2162            150.00     0          0          0          0
J162             150.00     0          0          0          0
J2173            150.00     0          0          0          0
J2189            150.00     0          0          0          0
J173             150.00     0          0          0          0
J189             150.00     0          0          0          0
J2155            150.00     0          0          0          0
J3174            150.00     0          0          0          0
J174             150.00     0          0          0          0
J2174            150.00     0          0          0          0
J155             150.00     0          0          0          0
J3160            150.00     0          0          0          0
J160             150.00     0          0          0          0
J121             150.00     0          0          0          0
J2154            150.00     0          0          0          0
J157             150.00     0          0          0          0
J2157            150.00     0          0          0          0
J114             150.00     0          0          0          0
J113             150.00     0          0          0          0
J2114            150.00     0          0          0          0
J27              150.00     0          0          0          0
J26              150.00     0          0          0          0
J118             150.00     0          0          0          0
J195             150.00     0          0          0          0
J2195            150.00     0          0          0          0
J3195            150.00     0          0          0          0
J2194            150.00     0          0          0          0
J194             150.00     0          0          0          0
J2160            150.00     0          0          0          0
J28              150.00     0          0          0          0
J2028            10.00      0          0          0          0
J3028            10.00      0          0          0          0
J154             150.00     0          0          0          0
PVT204           150.00     0          0          0          0
JPVT204          150.00     0          0          0          0
J2159            150.00     0          0          0          0
J4162            150.00     0          0          0          0
J3154            150.00     0          0          0          0
J2193            150.00     0          0          0          0
J193             150.00     0          0          0          0
J2948            150.00     0          0          0          0
J948             150.00     0          0          0          0
J947             150.00     0          0          0          0
PVT220           150.00     0          0          0          0
J2140            150.00     0          0          0          0
J3140            150.00     0          0          0          0
J3114            10.00      0          0          0          0
M-18             150.00     0          0          0          0
PVT408           150.00     0          0          0          0
J7938            150.00     0          0          0          0
PVT372           150.00     0          0          0          0
JPVT372          150.00     0          0          0          0
PVT54            150.00     0          0          0          0
J3197            150.00     0          0          0          0
PVT10028         150.00     0          0          0          0
PVT10027         150.00     0          0          0          0
PVT217           150.00     0          0          0          0
J3108            150.00     0          0          0          0
PVT94            150.00     0          0          0          0
J2PVT43          150.00     0          0          0          0
J4154            150.00     0          0          0          0
PVT43            150.00     0          0          0          0
PVT349           150.00     0          0          0          0
PVT175           150.00     0          0          0          0
J2187AA          150.00     0          0          0          0
J3189            150.00     0          0          0          0
J21078           150.00     0          0          0          0
J1078            150.00     0          0          0          0
SS559            150.00     0          0          0          0
J611             150.00     0          0          0          0
J3612            150.00     0          0          0          0
J612             150.00     0          0          0          0
J2612            150.00     0          0          0          0
J615             150.00     0          0          0          0
J631             150.00     0          0          0          0
J2630            150.00     0          0          0          0
J3630            150.00     0          0          0          0
J630             150.00     0          0          0          0
J621             150.00     0          0          0          0
J620             150.00     0          0          0          0
J2620            150.00     0          0          0          0
J618             150.00     0          0          0          0
J2618            150.00     0          0          0          0
J3618            150.00     0          0          0          0
J7619            150.00     0          0          0          0
J619             150.00     0          0          0          0
J617             150.00     0          0          0          0
J3617            10.00      0          0          0          0
J898             150.00     0          0          0          0
J9619            150.00     0          0          0          0
J625             150.00     0          0          0          0
J626             150.00     0          0          0          0
J2626            150.00     0          0          0          0
J624             150.00     0          0          0          0
J2624            150.00     0          0          0          0
J11623           150.00     0          0          0          0
J10623           150.00     0          0          0          0
J623             150.00     0          0          0          0
J633             150.00     0          0          0          0
J4618            150.00     0          0          0          0
J2616            150.00     0          0          0          0
J616             150.00     0          0          0          0
J686             150.00     0          0          0          0
J3594            150.00     0          0          0          0
J594             150.00     0          0          0          0
J2594            150.00     0          0          0          0
J627             150.00     0          0          0          0
J2627            150.00     0          0          0          0
J628             150.00     0          0          0          0
J3627            150.00     0          0          0          0
J634             150.00     0          0          0          0
J635             150.00     0          0          0          0
J629             150.00     0          0          0          0
J2629            150.00     0          0          0          0
J2611            150.00     0          0          0          0
J2898            150.00     0          0          0          0
J2619            160.00     0          0          0          0
J5619            150.00     0          0          0          0
J4624            10.00      0          0          0          0
J5624            10.00      0          0          0          0
J2623            150.00     0          0          0          0
J2628            150.00     0          0          0          0
PVT10056         150.00     0          0          0          0
J10625           150.00     0          0          0          0
J12625           150.00     0          0          0          0
J13625           10.00      0          0          0          0
J11625           150.00     0          0          0          0
J2613            150.00     0          0          0          0
J3631            150.00     0          0          0          0
J2631            150.00     0          0          0          0
PVT98            150.00     0          0          0          0
J2628A           150.00     0          0          0          0
J776             150.00     0          0          0          0
J2777            150.00     0          0          0          0
J2775            150.00     0          0          0          0
J777             150.00     0          0          0          0
J539             150.00     0          0          0          0
J2785            150.00     0          0          0          0
J3785            150.00     0          0          0          0
J778             150.00     0          0          0          0
J775             150.00     0          0          0          0
J783             150.00     0          0          0          0
J2783            150.00     0          0          0          0
J782             150.00     0          0          0          0
J2782            150.00     0          0          0          0
J3775            150.00     0          0          0          0
J759             150.00     0          0          0          0
J2744            150.00     0          0          0          0
J3744            10.00      0          0          0          0
J784             150.00     0          0          0          0
J2784            150.00     0          0          0          0
J786             150.00     0          0          0          0
J774             150.00     0          0          0          0
J544             150.00     0          0          0          0
J2544            150.00     0          0          0          0
J675             150.00     0          0          0          0
J2675            150.00     0          0          0          0
J758             150.00     0          0          0          0
J2758            150.00     0          0          0          0
J779             150.00     0          0          0          0
J780             150.00     0          0          0          0
J2813            150.00     0          0          0          0
J762             150.00     0          0          0          0
J674             150.00     0          0          0          0
J10674           150.00     0          0          0          0
J666             150.00     0          0          0          0
J694             150.00     0          0          0          0
J814             150.00     0          0          0          0
J754             150.00     0          0          0          0
J761             150.00     0          0          0          0
J2761            150.00     0          0          0          0
J764             150.00     0          0          0          0
J2764            150.00     0          0          0          0
J3599            150.00     0          0          0          0
J561             150.00     0          0          0          0
J599             150.00     0          0          0          0
J550             150.00     0          0          0          0
J2567            150.00     0          0          0          0
J567             150.00     0          0          0          0
J598             150.00     0          0          0          0
J2599            150.00     0          0          0          0
J753             150.00     0          0          0          0
J760             150.00     0          0          0          0
J2760            150.00     0          0          0          0
J773             150.00     0          0          0          0
J771             150.00     0          0          0          0
J772             150.00     0          0          0          0
J768             150.00     0          0          0          0
J769             150.00     0          0          0          0
J765             150.00     0          0          0          0
J785             150.00     0          0          0          0
J3761            150.00     0          0          0          0
J4744            10.00      0          0          0          0
J4764            10.00      0          0          0          0
J3757            10.00      0          0          0          0
J781             150.00     0          0          0          0
J548             150.00     0          0          0          0
J2548            150.00     0          0          0          0
J3518            150.00     0          0          0          0
J518             150.00     0          0          0          0
J5764            150.00     0          0          0          0
PVT23            150.00     0          0          0          0
J3760            150.00     0          0          0          0
J3766            150.00     0          0          0          0
J766             150.00     0          0          0          0
J2766            150.00     0          0          0          0
J5767            150.00     0          0          0          0
J767             150.00     0          0          0          0
J2767            150.00     0          0          0          0
J4767            150.00     0          0          0          0
J2674            150.00     0          0          0          0
J3777            150.00     0          0          0          0
J5777            150.00     0          0          0          0
J5765            150.00     0          0          0          0
J3548            150.00     0          0          0          0
PVT00109         150.00     0          0.02       0          0
J2754            150.00     0          0          0          0
PVT00388         150.00     0          0.02       0          0
PVT00398         150.00     0          0.02       0          0
J2814            150.00     0          0          0          0
PVT213           150.00     0          0          0          0
J12813           150.00     0          0          0          0
PVT10061         150.00     0          0          0          0
PVT494           150.00     0          0          0          0
J4548            150.00     0          0          0          0
PVT17            150.00     0          0          0          0
PVT10039         150.00     0          0          0          0
J2518            150.00     0          0          0          0
PVT13            150.00     0          0          0          0
PVT351           150.00     0          0          0          0
PVT350           150.00     0          0          0          0
J10764           150.00     0          0          0          0
J14764           150.00     0          0          0          0
PVT52&ETC        150.00     0          0          0          0
PVT418&ETC       150.00     0          0          0          0
PVT194           150.00     0          0          0          0
PVT493           150.00     0          0          0          0
PVT383           150.00     0          0          0          0
J12561           150.00     0          0          0          0
PVT381           150.00     0          0          0          0
JPVT115          150.00     0          0          0          0
PVT115           150.00     0          0          0          0
PVT389           150.00     0          0          0          0
PVT10057         150.00     0          0          0          0
J2694            150.00     0          0          0          0
J834             150.00     0          0          0          0
J2824            150.00     0          0          0          0
J2823            150.00     0          0          0          0
J2804            150.00     0          0          0          0
J804             150.00     0          0          0          0
J822             150.00     0          0          0          0
J3822            150.00     0          0          0          0
J818             150.00     0          0          0          0
J2818            150.00     0          0          0          0
J2815            150.00     0          0          0          0
J3851            150.00     0          0          0          0
J815             150.00     0          0          0          0
J800             150.00     0          0          0          0
J2800            150.00     0          0          0          0
J798             150.00     0          0          0          0
J2798            150.00     0          0          0          0
J3798            150.00     0          0          0          0
J799             150.00     0          0          0          0
J2797            150.00     0          0          0          0
J797             150.00     0          0          0          0
J795             150.00     0          0          0          0
J2795            150.00     0          0          0          0
J505             150.00     0          0          0          0
J2505            150.00     0          0          0          0
J2816            150.00     0          0          0          0
J817             150.00     0          0          0          0
J816             150.00     0          0          0          0
J581             150.00     0          0          0          0
J2581            150.00     0          0          0          0
J788             150.00     0          0          0          0
J893             150.00     0          0          0          0
PVT386           150.00     0          0          0          0
J3789            150.00     0          0          0          0
J2789            150.00     0          0          0          0
J895             150.00     0          0          0          0
J789             150.00     0          0          0          0
J807             150.00     0          0          0          0
J2807            150.00     0          0          0          0
J2803            150.00     0          0          0          0
J2820            150.00     0          0          0          0
J803             150.00     0          0          0          0
PVT19&390        150.00     0          0          0          0
J11807           150.00     0          0          0          0
J825             150.00     0          0          0          0
J2825            150.00     0          0          0          0
J2865            150.00     0          0          0          0
J831             150.00     0          0          0          0
J2831            150.00     0          0          0          0
J2826            150.00     0          0          0          0
J3826            150.00     0          0          0          0
J884             150.00     0          0          0          0
J2884            150.00     0          0          0          0
J826             150.00     0          0          0          0
J881             150.00     0          0          0          0
J865             150.00     0          0          0          0
J2526            150.00     0          0          0          0
J839             150.00     0          0          0          0
J830             150.00     0          0          0          0
J3830            150.00     0          0          0          0
J827             150.00     0          0          0          0
J2827            150.00     0          0          0          0
J828             150.00     0          0          0          0
J2828            150.00     0          0          0          0