;; SWMM5 .inp converted from XPSWMM .xp file
;; Generated by XPSWMM Card Reader
;; Source format: XP_CARD | Original title: RUNOFF-EXTRAN model for UPPER MT. SCOTT CREEK

[TITLE]
;;Project Title/Notes
RUNOFF-EXTRAN model for UPPER MT. SCOTT CREEK

[OPTIONS]
FLOW_UNITS           CFS
INFILTRATION         HORTON
FLOW_ROUTING         DYNWAVE
LINK_OFFSETS         DEPTH
MIN_SLOPE            0.0
ALLOW_PONDING        NO
SKIP_STEADY_STATE    NO
ROUTING_STEP         00:00:01
VARIABLE_STEP        0.75
INERTIAL_DAMPING     PARTIAL
NORMAL_FLOW_LIMITED  BOTH
MAX_TRIALS           100
HEAD_TOLERANCE       .0066

[JUNCTIONS]
;;Name           Elev       MaxDepth   InitDepth  SurDepth   Aponded
;;-------------- ---------- ---------- ---------- ---------- ----------
38400            633.00     0          0          0          0
38350            616.50     0          0          0          0
38300            601.00     0          0          0          0
38250            541.00     0          0          0          0
38200            548.00     0          0          0          0
38150            541.00     0          0          0          0
38100            517.00     0          0          0          0
38050            510.00     0          0          0          0
38000            494.00     0          0          0          0
36900            488.50     0          0          0          0
36850            472.50     0          0          0          0
36800            461.00     0          0          0          0
36750            453.50     0          0          0          0
36700            449.50     0          0          0          0
36650            439.50     0          0          0          0
36600            438.50     0          0          0          0
37250            632.50     0          0          0          0
37200            632.50     0          0          0          0
37150            580.00     0          0          0          0
37100            536.50     0          0          0          0
37050            514.50     0          0          0          0
37000            498.00     0          0          0          0
39850            476.50     0          0          0          0
39800            473.50     0          0          0          0
39750            470.50     0          0          0          0
39650            466.50     0          0          0          0
39600            464.00     0          0          0          0
39550            462.50     0          0          0          0
39500            458.50     0          0          0          0
39450            455.50     0          0          0          0
39400            450.50     0          0          0          0
39350            448.50     0          0          0          0
39300            446.18     0          0          0          0
39250            446.18     0          0          0          0
39200            444.50     0          0          0          0
39150            443.00     0          0          0          0
39100            439.00     0          0          0          0
39050            439.00     0          0          0          0
39000            438.50     0          0          0          0
36550            437.00     0          0          0          0
36500            435.00     0          0          0          0
39125            440.00     0          0          0          0
302              616.85     0          0          0          0
305              536.75     0          0          0          0
307              494.00     0          0          0          0
313              568.50     0          0          0          0
323              506.00     0          0          0          0
324              451.20     0          0          0          0

[CONDUITS]
;;Name           From             To               Length     Roughness  InOffset   OutOffset  InitFlow   MaxFlow
;;-------------- ---------------- ---------------- ---------- ---------- ---------- ---------- ---------- ----------
3840038350       38400            302              128.39     0          609.68     602.99     0          0
3835038300       38350            38300            282.54     0          599.61     581.24     0          0
3830038250       38300            38250            403.92     0          581.24     527.47     0          0
3820038150       38200            38150            109.78     0          518.99     512.29     0          0
3815038100       38150            38100            255.66     0          512.29     488.77     0          0
3810038050       38100            38050            140.22     0          488.77     482.50     0          0
3805038000       38050            38000            102.79     0          482.50     478.10     0          0
3800036900       38000            307              90.00      0.0140     478.10     474.60     0          0
3690036850       36900            36850            431.37     0          466.83     452.46     0          0
3685036800       36850            36800            135.53     0          452.46     447.35     0          0
3680036750       36800            36750            174.72     0          447.35     442.76     0          0
3675036700       36750            36700            106.51     0          442.76     438.80     0          0
3670036650       36700            36650            177.19     0          438.80     432.71     0          0
3665036600       36650            36600            128.20     0          432.71     427.49     0          0
3725037200       37250            37200            277.70     0          616.86     596.77     0          0
3720037150       37200            37150            502.76     0          596.77     544.29     0          0
3715037100       37150            37100            379.15     0          544.29     514.51     0          0
3710037050       37100            37050            246.87     0          514.51     498.81     0          0
3705037000       37050            37000            160.89     0          498.81     491.07     0          0
3985039800       39850            39800            424.15     0          471.00     468.01     0          0
3980039750       39800            39750            596.61     0          468.01     459.92     0          0
3970039650       39750            39650            360.81     0          459.92     455.84     0          0
3965039600       39650            39600            232.96     0          455.84     453.31     0          0
3960039550       39600            39550            127.92     0          453.31     453.21     0          0
3955039500       39550            39500            361.99     0          453.21     447.44     0          0
3950039450       39500            39450            267.98     0          447.44     444.44     0          0
3945039400       39450            39400            176.75     0          444.44     441.93     0          0
3940039350       39400            39350            217.77     0          441.93     439.97     0          0
3935039300       39350            39300            106.60     0          439.97     436.73     0          0
3930039250       39300            39250            61.25      0.0140     436.83     436.70     0          0
3925039200       39250            39200            248.97     0          436.70     435.16     0          0
3920039150       39200            39150            179.96     0          435.16     433.54     0          0
3912539100       39125            39100            300.60     0          433.29     430.84     0          0
3910039050       39100            39050            216.46     0          430.84     429.44     0          0
3905039000       39050            39000            233.09     0          429.44     427.69     0          0
3900036600       39000            36600            71.02      0          427.69     427.49     0          0
3660036550       36600            36550            146.29     0          427.49     426.53     0          0
3655036500       36550            36500            131.22     0          426.53     425.79     0          0
3915039125       39150            39125            93.82      0          433.54     433.29     0          0
303              302              38350            65.00      0.0140     602.99     599.61     0          0
304              38250            305              69.58      0.0140     527.47     523.23     0          0
306              305              38200            69.58      0.0140     523.23     518.99     0          0
308              307              36900            199.90     0          474.60     466.83     0          0
312              37000            36900            394.30     0.0140     491.44     466.83     0          0
314              313              39800            1880.00    0          562.00     468.01     0          0
325              323              324              1371.00    0          500.00     445.00     0          0
326              324              39100            1300.00    0          445.00     430.84     0          0

[XSECTIONS]
;;Link           Shape        Geom1      Geom2      Geom3      Geom4      Barrels
;;-------------- ------------ ---------- ---------- ---------- ---------- ----------
3840038350       IRREGULAR    0          0          0          0          1
3835038300       IRREGULAR    0          0          0          0          1
3830038250       IRREGULAR    0          0          0          0          1
3820038150       IRREGULAR    0          0          0          0          1
3815038100       IRREGULAR    0          0          0          0          1
3810038050       IRREGULAR    0          0          0          0          1
3805038000       IRREGULAR    0          0          0          0          1
3800036900       CIRCULAR     2.50       0          0          0          1
3690036850       IRREGULAR    0          0          0          0          1
3685036800       IRREGULAR    0          0          0          0          1
3680036750       IRREGULAR    0          0          0          0          1
3675036700       IRREGULAR    0          0          0          0          1
3670036650       IRREGULAR    0          0          0          0          1
3665036600       IRREGULAR    0          0          0          0          1
3725037200       IRREGULAR    0          0          0          0          1
3720037150       IRREGULAR    0          0          0          0          1
3715037100       IRREGULAR    0          0          0          0          1
3710037050       IRREGULAR    0          0          0          0          1
3705037000       IRREGULAR    0          0          0          0          1
3985039800       IRREGULAR    0          0          0          0          1
3980039750       IRREGULAR    0          0          0          0          1
3970039650       IRREGULAR    0          0          0          0          1
3965039600       IRREGULAR    0          0          0          0          1
3960039550       IRREGULAR    0          0          0          0          1
3955039500       IRREGULAR    0          0          0          0          1
3950039450       IRREGULAR    0          0          0          0          1
3945039400       IRREGULAR    0          0          0          0          1
3940039350       IRREGULAR    0          0          0          0          1
3935039300       IRREGULAR    0          0          0          0          1
3930039250       CIRCULAR     5.50       0          0          0          1
3925039200       IRREGULAR    0          0          0          0          1
3920039150       IRREGULAR    0          0          0          0          1
3912539100       IRREGULAR    0          0          0          0          1
3910039050       IRREGULAR    0          0          0          0          1
3905039000       IRREGULAR    0          0          0          0          1
3900036600       IRREGULAR    0          0          0          0          1
3660036550       IRREGULAR    0          0          0          0          1
3655036500       IRREGULAR    0          0          0          0          1
3915039125       IRREGULAR    0          0          0          0          1
303              CIRCULAR     3.00       0          0          0          1
304              CIRCULAR     3.00       0          0          0          1
306              CIRCULAR     4.00       0          0          0          1
308              IRREGULAR    0          0          0          0          1
312              CIRCULAR     3.50       0          0          0          1
314              IRREGULAR    0          0          0          0          1
325              IRREGULAR    0          0          0          0          1
326              IRREGULAR    0          0          0          0          1

[LOSSES]
;;Link           Inlet      Outlet     Average    Flap Gate
;;-------------- ---------- ---------- ---------- ----------
3840038350       0          0          0          NO
3835038300       0          0          0          NO
3830038250       0          0          0          NO
3820038150       0          0          0          NO
3815038100       0          0          0          NO
3810038050       0          0          0          NO
3805038000       0          0          0          NO
3800036900       0          0          0          NO
3690036850       0          0          0          NO
3685036800       0          0          0          NO
3680036750       0          0          0          NO
3675036700       0          0          0          NO
3670036650       0          0          0          NO
3665036600       0          0          0          NO
3725037200       0          0          0          NO
3720037150       0          0          0          NO
3715037100       0          0          0          NO
3710037050       0          0          0          NO
3705037000       0          0          0          NO
3985039800       0          0          0          NO
3980039750       0          0          0          NO
3970039650       0          0          0          NO
3965039600       0          0          0          NO
3960039550       0          0          0          NO
3955039500       0          0          0          NO
3950039450       0          0          0          NO
3945039400       0          0          0          NO
3940039350       0          0          0          NO
3935039300       0          0          0          NO
3930039250       0          0          0          NO
3925039200       0          0          0          NO
3920039150       0          0          0          NO
3912539100       0          0          0          NO
3910039050       0          0          0          NO
3905039000       0          0          0          NO
3900036600       0          0          0          NO
3660036550       0          0          0          NO
3655036500       0          0          0          NO
3915039125       0          0          0          NO
303              0          0          0          NO
304              0          0          0          NO
306              0          0          0          NO
308              0          0          0          NO
312              0          0          0          NO
314              0          0          0          NO
325              0          0          0          NO
326              0          0          0          NO

[COORDINATES]
;;Node           X-Coord            Y-Coord
;;-------------- ------------------ ------------------
38400            -657350.91         7679324.01        
38350            -657203.03         7679498.51        
38300            -656980.83         7679749.18        
38250            -656600.40         7680057.25        
38200            -656486.94         7680199.87        
38150            -656400.17         7680268.33        
38100            -656179.93         7680468.01        
38050            -656133.21         7680644.86        
38000            -656103.33         7680752.81        
36900            -655975.06         7680995.78        
36850            -655579.25         7681380.98        
36800            -655439.09         7681472.09        
36750            -655265.56         7681551.96        
36700            -655134.67         7681556.86        
36650            -655025.29         7681747.71        
36600            -655011.94         7681899.97        
37250            -657739.96         7679811.48        
37200            -657461.37         7680023.02        
37150            -657192.45         7680533.31        
37100            -656842.83         7680816.19        
37050            -656567.03         7680964.34        
37000            -656417.84         7681021.39        
39850            -657904.31         7684995.34        
39800            -657581.51         7684564.20        
39750            -657568.16         7683885.31        
39650            -657587.32         7683380.34        
39600            -657442.36         7683217.03        
39550            -657395.56         7683135.57        
39500            -657054.24         7682898.34        
39450            -656807.30         7682704.37        
39400            -656593.73         7682647.32        
39350            -656493.61         7682453.35        
39300            -656384.70         7682384.88        
39250            -656283.21         7682391.79        
39200            -655986.38         7682356.37        
39150            -655804.77         7682253.68        
39100            -655359.00         7682128.17        
39050            -655125.41         7682225.15        
39000            -655063.94         7681954.00        
36550            -654864.76         7681801.77        
36500            -654805.04         7681688.88        
39125            -655693.69         7682250.24        
302              -657246.15         7679447.73        
305              -656543.28         7680127.79        
307              -656053.85         7680839.62        
313              -657381.83         7686421.79        
323              -655092.14         7684841.89        
324              -655257.66         7683462.42        

[MAP]
DIMENSIONS -657904.31 7679324.01 -654805.04 7686421.79
Units      None

[REPORT]
INPUT            YES
SUBCATCHMENTS    ALL
NODES            ALL
LINKS            ALL



