;; SWMM5 .inp converted from XPSWMM .xp file
;; Generated by XPSWMM Card Reader
;; Source format: XP_CARD | Original title: City of Lockport

[TITLE]
;;Project Title/Notes
City of Lockport

[OPTIONS]
FLOW_UNITS           CFS
INFILTRATION         HORTON
FLOW_ROUTING         DYNWAVE
LINK_OFFSETS         DEPTH
MIN_SLOPE            0.0
ALLOW_PONDING        NO
SKIP_STEADY_STATE    NO
ROUTING_STEP         00:00:15
VARIABLE_STEP        0.75
INERTIAL_DAMPING     PARTIAL
NORMAL_FLOW_LIMITED  BOTH
MAX_TRIALS           50

[JUNCTIONS]
;;Name           Elev       MaxDepth   InitDepth  SurDepth   Aponded
;;-------------- ---------- ---------- ---------- ---------- ----------
5                590.00     0          0          0          0
7                590.00     0          0          0          0
19               595.00     0          0          0          0
23               595.00     0          0          0          0
25               595.00     0          0          0          0
35               580.00     0          0          0          0
37               520.00     0          0          0          0
41               485.00     0          0          0          0
43               475.00     0          0          0          0
G                475.00     0          0          0          0
OF#2             468.00     0          0          0          0
Frost            459.28     0          0          0          0
51               458.00     0          0          0          0
53               455.00     0          0          0          0
55               468.00     0          0          0          0
59               468.00     0          0          0          0
61               468.00     0          0          0          0
63               595.00     0          0          0          0
67               468.00     0          0          0          0
69               468.00     0          0          0          0
71               468.00     0          0          0          0
73               468.00     0          0          0          0
75               420.00     0          0          0          0
77               420.00     0          0          0          0
79               420.00     0          0          0          0
81               420.00     0          0          0          0
83               420.00     0          0          0          0
85               420.00     0          0          0          0
87               420.00     0          0          0          0
89               420.00     0          0          0          0
91               420.00     0          0          0          0
93               420.00     0          0          0          0
300              500.00     0          0          0          0
B                635.00     0          0          0          0
102              635.00     0          0          0          0
104              635.00     0          0          0          0
106              625.00     0          0          0          0
108              620.00     0          0          0          0
110              611.00     0          0          0          0
113              605.00     0          0          0          0
114              595.00     0          0          0          0
116              592.00     0          0          0          0
A                592.00     0          0          0          0
121              592.00     0          0          0          0
124              420.00     0          0          0          0
126              465.70     0          0          0          0
128              465.70     0          0          0          0
F                491.00     0          0          0          0
131              491.00     0          0          0          0
133              492.00     0          0          0          0
135              489.00     0          0          0          0
138              493.00     0          0          0          0
141              468.00     0          0          0          0
143              468.00     0          0          0          0

[STORAGE]
;;Name           Elev       MaxDepth   InitDepth  Shape      Curve/Params
;;-------------- ---------- ---------- ---------- ---------- ----------
IC14             590.00     -52.55     0          FUNCTIONAL 64.60 0          0
IC13             590.00     -52.85     0          FUNCTIONAL 30.40 0          0
IC12             595.00     -8.56      0          FUNCTIONAL 144.00 0          0
IC10             600.00     -67.65     0          FUNCTIONAL 4.75 0          0
IC9              592.00     -63.31     0          FUNCTIONAL 26.60 0          0
IC8              590.00     -62.71     0          FUNCTIONAL 57.00 0          0
IC6              590.00     -64.42     0          FUNCTIONAL 62.70 0          0
SHAFT2           595.00     -8.78      0          FUNCTIONAL 144.00 0          0
SHAFT1           495.00     -6.92      0          FUNCTIONAL 144.00 0          0
SHAFT3           594.00     -6.01      0          FUNCTIONAL 144.00 0          0
IC11             592.00     -57.92     0          FUNCTIONAL 21.85 0          0

[CONDUITS]
;;Name           From             To               Length     Roughness  InOffset   OutOffset  InitFlow   MaxFlow
;;-------------- ---------------- ---------------- ---------- ---------- ---------- ---------- ---------- ----------
6                IC14             5                226.00     0.0140     532.45     532.00     0          0
8                5                7                400.00     0.0140     532.00     531.20     0          0
10               7                IC13             523.50     0.0140     531.20     530.15     0          0
18               IC13             IC12             354.50     0.0140     530.15     529.44     0          0
20               IC12             19               514.98     0.0140     529.44     528.41     0          0
22               19               IC10             531.02     0.0140     528.41     527.35     0          0
24               IC10             23               276.00     0.0140     527.35     526.80     0          0
26               23               63               100.00     0.0140     526.80     526.51     0          0
28               25               SHAFT3           300.00     0.0140     524.59     523.99     0          0
30               IC9              IC8              700.00     0.0140     523.69     522.29     0          0
32               IC8              IC6              367.00     0.0140     522.29     520.58     0          0
34               IC6              SHAFT2           1283.00    0.0140     520.58     515.22     0          0
36               SHAFT2           35               1000.00    0.0140     515.22     492.44     0          0
38               35               37               600.00     0.0140     492.44     478.52     0          0
40               37               SHAFT1           285.00     0.0140     478.52     472.08     0          0
42               SHAFT1           300              172.00     0.0140     472.08     470.26     0          0
44               41               43               200.00     0.0140     466.38     463.64     0          0
46               43               G                861.00     0.0140     463.64     460.64     0          0
48               G                OF#2             193.00     0.0140     460.64     460.20     0          0
50               OF#2             Frost            329.10     0.0140     460.20     456.78     0          0
52               Frost            51               250.40     0.0140     456.78     453.36     0          0
54               51               53               321.70     0.0140     453.36     448.81     0          0
56               53               55               434.90     0.0140     448.81     442.75     0          0
60               55               59               453.40     0.0140     441.04     437.54     0          0
62               59               61               390.00     0.0140     437.45     430.90     0          0
64               63               25               400.00     0.0140     526.51     524.59     0          0
68               61               67               185.00     0.0140     430.90     422.54     0          0
70               67               69               130.00     0.0140     422.54     416.63     0          0
72               69               71               59.00      0.0140     416.63     409.65     0          0
74               71               73               40.00      0.0140     409.65     405.57     0          0
76               73               75               124.00     0.0140     405.57     401.06     0          0
78               75               77               243.50     0.0140     401.06     380.60     0          0
80               77               79               80.00      0.0140     380.50     378.60     0          0
82               79               81               40.00      0.0140     378.60     376.73     0          0
84               81               83               44.60      0.0140     376.73     373.32     0          0
86               83               85               115.00     0.0140     373.22     372.07     0          0
88               85               87               131.00     0.0140     372.07     370.81     0          0
90               87               89               103.00     0.0140     370.81     369.78     0          0
92               89               91               345.00     0.0140     369.68     362.92     0          0
94               91               93               125.00     0.0140     362.92     362.34     0          0
96               SHAFT3           IC9              150.00     0.0140     523.99     523.69     0          0
98               300              41               366.00     0.0140     470.26     466.38     0          0
prtun            IC11             19               337.00     0.0140     529.08     528.41     0          0
103              B                102              565.00     0.0140     623.87     621.61     0          0
105              102              104              378.00     0.0140     621.61     618.59     0          0
107              104              106              1145.00    0.0140     617.19     612.61     0          0
109              106              108              335.00     0.0140     612.42     608.06     0          0
111              108              110              330.00     0.0140     608.06     601.46     0          0
112              110              113              790.00     0.0140     600.40     594.08     0          0
115              113              114              113.00     0.0140     592.52     585.20     0          0
117              114              116              200.00     0.0140     584.94     584.54     0          0
118              116              121              1146.00    0.0140     584.54     582.25     0          0
122              121              A                12.00      0.0140     582.25     582.20     0          0
125              93               124              36.00      0.0140     362.34     361.98     0          0
129              126              128              100.00     0.0140     460.50     458.50     0          0
132              F                131              70.00      0.0140     472.59     472.45     0          0
134              131              133              268.00     0.0140     472.45     471.88     0          0
136              133              135              111.00     0.0140     471.88     471.64     0          0
137              135              300              65.30      0.0140     471.00     470.26     0          0
139              F                138              340.00     0.0140     472.59     472.12     0          0
140              138              135              135.00     0.0140     472.12     471.61     0          0
142              OF#2             141              935.00     0.0140     460.50     449.74     0          0
144              141              143              400.00     0.0140     448.15     442.55     0          0
145              143              55               11.00      0.0140     441.29     441.12     0          0

[ORIFICES]
;;Name           From             To               Type       Offset     Qcoeff     Gated    CloseTime
;;-------------- ---------------- ---------------- ---------- ---------- ---------- -------- ----------
120              A                IC14             SIDE       0          0.650      NO       0

[WEIRS]
;;Name           From             To               Type       CrestHt    Qcoeff     Gated    EndCon   EndCoeff   Surcharge
;;-------------- ---------------- ---------------- ---------- ---------- ---------- -------- -------- ---------- ----------
127              OF#2             126              TRANSVERSE 464.76     1.840      NO       0        0          YES

[XSECTIONS]
;;Link           Shape        Geom1      Geom2      Geom3      Geom4      Barrels
;;-------------- ------------ ---------- ---------- ---------- ---------- ----------
6                HORSESHOE    5.00       4.00       0          0          1
8                HORSESHOE    5.00       4.00       0          0          1
10               HORSESHOE    5.00       4.00       0          0          1
18               HORSESHOE    5.00       4.00       0          0          1
20               HORSESHOE    5.00       4.00       0          0          1
22               HORSESHOE    5.00       4.00       0          0          1
24               HORSESHOE    5.00       4.00       0          0          1
26               HORSESHOE    5.00       4.00       0          0          1
28               HORSESHOE    5.00       4.00       0          0          1
30               HORSESHOE    5.00       4.00       0          0          1
32               HORSESHOE    5.00       4.00       0          0          1
34               HORSESHOE    5.00       4.00       0          0          1
36               HORSESHOE    5.00       4.00       0          0          1
38               HORSESHOE    5.00       4.00       0          0          1
40               HORSESHOE    5.00       4.00       0          0          1
42               HORSESHOE    5.00       4.00       0          0          1
44               CIRCULAR     4.00       0          0          0          1
46               CIRCULAR     4.00       0          0          0          1
48               CIRCULAR     4.00       0          0          0          1
50               CIRCULAR     2.50       0          0          0          1
52               CIRCULAR     2.50       0          0          0          1
54               CIRCULAR     2.50       0          0          0          1
56               CIRCULAR     2.50       0          0          0          1
60               CIRCULAR     3.50       0          0          0          1
62               CIRCULAR     3.00       0          0          0          1
64               HORSESHOE    5.00       4.00       0          0          1
68               CIRCULAR     3.00       0          0          0          1
70               CIRCULAR     3.00       0          0          0          1
72               CIRCULAR     3.00       0          0          0          1
74               CIRCULAR     3.00       0          0          0          1
76               CIRCULAR     3.00       0          0          0          1
78               CIRCULAR     3.00       0          0          0          1
80               CIRCULAR     3.00       0          0          0          1
82               CIRCULAR     3.00       0          0          0          1
84               CIRCULAR     3.00       0          0          0          1
86               CIRCULAR     3.00       0          0          0          1
88               CIRCULAR     3.00       0          0          0          1
90               CIRCULAR     3.00       0          0          0          1
92               CIRCULAR     3.00       0          0          0          1
94               CIRCULAR     3.00       0          0          0          1
96               HORSESHOE    5.00       4.00       0          0          1
98               HORSESHOE    5.00       4.00       0          0          1
prtun            HORSESHOE    5.00       4.00       0          0          1
103              CIRCULAR     1.50       0          0          0          1
105              CIRCULAR     1.50       0          0          0          1
107              CIRCULAR     1.50       0          0          0          1
109              CIRCULAR     1.50       0          0          0          1
111              CIRCULAR     1.50       0          0          0          1
112              CIRCULAR     1.50       0          0          0          1
115              CIRCULAR     1.50       0          0          0          1
117              CIRCULAR     1.50       0          0          0          1
118              CIRCULAR     1.50       0          0          0          1
122              CIRCULAR     1.50       0          0          0          1
125              CIRCULAR     3.00       0          0          0          1
129              CIRCULAR     3.50       0          0          0          1
132              CIRCULAR     2.00       0          0          0          1
134              CIRCULAR     2.00       0          0          0          1
136              CIRCULAR     2.00       0          0          0          1
137              HORSESHOE    5.00       4.00       0          0          1
139              CIRCULAR     4.00       0          0          0          1
140              CIRCULAR     4.00       0          0          0          1
142              CIRCULAR     2.50       0          0          0          1
144              CIRCULAR     2.50       0          0          0          1
145              CIRCULAR     2.50       0          0          0          1
120              RECT_CLOSED  0          0          0          0          
127              RECT_OPEN    0          6.00       0          0          

[LOSSES]
;;Link           Inlet      Outlet     Average    Flap Gate
;;-------------- ---------- ---------- ---------- ----------
6                0          0          0          NO
8                0          0          0          NO
10               0          0          0          NO
18               0          0          0          NO
20               0          0          0          NO
22               0          0          0          NO
24               0          0          0          NO
26               0          0          0          NO
28               0          0          0          NO
30               0          0          0          NO
32               0          0          0          NO
34               0          0          0          NO
36               0          0          0          NO
38               0          0          0          NO
40               0          0          0          NO
42               0          0          0          NO
44               0          0          0          NO
46               0          0          0          NO
48               0          0          0          NO
50               0          0          0          NO
52               0          0          0          NO
54               0          0          0          NO
56               0          0          0          NO
60               0          0          0          NO
62               0          0          0          NO
64               0          0          0          NO
68               0          0          0          NO
70               0          0          0          NO
72               0          0          0          NO
74               0          0          0          NO
76               0          0          0          NO
78               0          0          0          NO
80               0          0          0          NO
82               0          0          0          NO
84               0          0          0          NO
86               0          0          0          NO
88               0          0          0          NO
90               0          0          0          NO
92               0          0          0          NO
94               0          0          0          NO
96               0          0          0          NO
98               0          0          0          NO
prtun            0          0          0          NO
103              0          0          0          NO
105              0          0          0          NO
107              0          0          0          NO
109              0          0          0          NO
111              0          0          0          NO
112              0          0          0          NO
115              0          0          0          NO
117              0          0          0          NO
118              0          0          0          NO
122              0          0          0          NO
125              0          0          0          NO
129              0          0          0          NO
132              0          0          0          NO
134              0          0          0          NO
136              0          0          0          NO
137              0          0          0          NO
139              0          0          0          NO
140              0          0          0          NO
142              0          0          0          NO
144              0          0          0          NO
145              0          0          0          NO

[COORDINATES]
;;Node           X-Coord            Y-Coord
;;-------------- ------------------ ------------------
IC14             276915.79          69435.68          
5                276402.20          69760.73          
7                276047.06          69999.43          
IC13             275329.11          70497.73          
IC12             274989.68          70733.30          
19               274532.38          71076.14          
IC10             274177.48          71399.50          
23               273948.62          71627.56          
25               273485.71          72035.73          
IC9              273104.46          72188.72          
IC8              272424.41          72545.24          
IC6              272222.35          72778.76          
SHAFT2           271175.32          73489.47          
35               270256.88          73707.76          
37               269752.75          74251.02          
SHAFT1           269642.22          74368.12          
41               268985.19          74368.12          
43               268782.56          74368.12          
G                268061.87          73980.84          
OF#2             267802.57          73712.77          
Frost            267697.38          73590.05          
51               267584.09          73471.71          
53               267452.21          73341.70          
55               267363.37          72687.83          
59               267463.44          72434.21          
61               267470.00          72046.80          
63               273704.10          71826.04          
67               267449.52          71784.22          
69               267404.13          71514.03          
71               267381.59          71372.78          
73               267335.66          71228.34          
75               267247.51          70952.94          
77               267151.41          70756.36          
79               267075.52          70641.59          
81               267047.38          70617.92          
83               267005.55          70560.58          
85               266889.18          70469.19          
87               266820.85          70377.01          
89               266749.32          70313.97          
91               266552.22          70145.47          
93               266426.45          70072.89          
SHAFT3           273301.10          72194.75          
300              269372.17          74369.99          
IC11             274347.72          70771.38          
B                279155.08          70512.38          
102              279155.08          69862.80          
104              278819.30          69862.80          
106              278819.30          69378.20          
108              278533.27          69378.20          
110              278247.24          69388.51          
113              277700.04          69398.82          
114              277525.94          69306.02          
116              277301.94          69164.14          
A                276890.51          69419.42          
121              276946.80          69390.90          
124              266497.27          69877.11          
126              267729.32          73769.25          
128              267689.28          73882.13          
F                269225.21          74843.91          
131              269270.20          74735.13          
133              269453.88          74536.22          
135              269397.65          74421.23          
138              269502.61          74561.09          
141              267514.73          73206.31          
143              267442.57          72742.74          

[MAP]
DIMENSIONS 266426.45 69164.14 279155.08 74843.91
Units      None

[REPORT]
INPUT            YES
SUBCATCHMENTS    ALL
NODES            ALL
LINKS            ALL



