;; SWMM5 .inp converted from XPSWMM .xp file
;; Generated by XPSWMM Card Reader
;; Source format: XP_CARD | Original title: This is an XPX File

[TITLE]
;;Project Title/Notes
This is an XPX File

[OPTIONS]
FLOW_UNITS           CFS
INFILTRATION         HORTON
FLOW_ROUTING         DYNWAVE
LINK_OFFSETS         DEPTH
MIN_SLOPE            0.0
ALLOW_PONDING        NO
SKIP_STEADY_STATE    NO
ROUTING_STEP         00:00:20
VARIABLE_STEP        0.75
INERTIAL_DAMPING     NONE
NORMAL_FLOW_LIMITED  BOTH
MAX_TRIALS           30
HEAD_TOLERANCE       .001

[JUNCTIONS]
;;Name           Elev       MaxDepth   InitDepth  SurDepth   Aponded
;;-------------- ---------- ---------- ---------- ---------- ----------
5606             1118.00    0          568.00     0          0
5607             1118.00    0          578.00     0          0
75608            1118.00    0          538.00     0          0
5608             1118.00    0          538.00     0          0
5401             1281.00    0          41.00      0          0
5402             1272.00    0          24.00      0          0
5403             1271.00    0          37.00      0          0
5404             1268.00    0          28.00      0          0
5405             1268.00    0          189.00     0          0
5406             1268.00    0          521.00     0          0
5407             1268.00    0          228.00     0          0
5408             1268.00    0          228.00     0          0
5409             1268.00    0          322.00     0          0
5410             1115.00    0          38.00      0          0
5411             1115.00    0          158.00     0          0
5412             1115.00    0          730.00     0          0
5413             1115.00    0          162.00     0          0
5414             1010.00    0          57.00      0          0
5415             1010.00    0          250.00     0          0
5416             968.00     0          23.00      0          0
5417             968.00     0          445.00     0          0
5418             968.00     0          268.00     0          0
75405            1257.00    0          178.00     0          0
75411            1115.00    0          158.00     0          0
75417            972.00     0          449.00     0          0
5702             1295.00    0          51.00      0          0
5703             1295.00    0          305.00     0          0
5704             1295.00    0          432.00     0          0

[CONDUITS]
;;Name           From             To               Length     Roughness  InOffset   OutOffset  InitFlow   MaxFlow
;;-------------- ---------------- ---------------- ---------- ---------- ---------- ---------- ---------- ----------
P5606            5606             5607             2500.00    0.0120     550.00     540.00     0          0
P5607            5607             75608            1450.00    0.0120     540.00     580.00     0          0
P5401            5401             5402             9262.00    0.0130     1240.00    1248.00    0          0
P5402            5402             5403             1473.00    0.0122     1248.00    1234.00    0          0
P5403            5403             5404             4210.00    0.0122     1234.00    1240.00    0          0
P5404            5404             5405             842.00     0.0122     1240.00    1079.00    0          0
P5405            75405            5406             4200.00    0.0122     1079.00    747.00     0          0
P5406            5406             5407             9262.00    0.0122     747.00     1040.00    0          0
P5407            5407             5408             14735.00   0.0122     1040.00    1040.00    0          0
P5408            5408             5409             5683.00    0.0122     1040.00    946.00     0          0
P5409            5409             5410             4210.00    0.0122     946.00     1077.00    0          0
P5410            5410             5411             421.00     0.0122     1077.00    957.00     0          0
P5411            75411            5412             19777.00   0.0122     957.00     385.00     0          0
P5412            5412             5413             18524.00   0.0122     385.00     953.00     0          0
P5413            5413             5414             6600.00    0.0122     953.00     953.00     0          0
P5414            5414             5415             3368.00    0.0122     953.00     760.00     0          0
P5415            5415             5416             842.00     0.0122     760.00     945.00     0          0
P5416            5416             5417             6447.00    0.0122     945.00     523.00     0          0
P5417            75417            5418             9868.00    0.0122     523.00     700.00     0          0
P5418            5418             5608             9473.00    0.0122     700.00     580.00     0          0
P75405           5405             75405            33.00      0.0140     1079.00    1079.00    0          0
P75411           5411             75411            33.00      0.0140     957.00     957.00     0          0
P75417           5417             75417            33.00      0.0140     523.00     523.00     0          0
P5702            5702             5703             2369.00    0.0120     1244.00    990.00     0          0
P5703            5703             5704             10787.00   0.0120     990.00     863.00     0          0

[XSECTIONS]
;;Link           Shape        Geom1      Geom2      Geom3      Geom4      Barrels
;;-------------- ------------ ---------- ---------- ---------- ---------- ----------
P5606            CIRCULAR     8.00       0          0          0          1
P5607            CIRCULAR     8.00       0          0          0          1
P5401            CIRCULAR     10.08      0          0          0          1
P5402            CIRCULAR     9.00       0          0          0          1
P5403            CIRCULAR     9.00       0          0          0          1
P5404            CIRCULAR     9.00       0          0          0          1
P5405            CIRCULAR     9.00       0          0          0          1
P5406            CIRCULAR     9.00       0          0          0          1
P5407            CIRCULAR     9.00       0          0          0          1
P5408            CIRCULAR     9.00       0          0          0          1
P5409            CIRCULAR     9.00       0          0          0          1
P5410            CIRCULAR     9.00       0          0          0          1
P5411            CIRCULAR     9.00       0          0          0          1
P5412            CIRCULAR     9.00       0          0          0          1
P5413            CIRCULAR     10.08      0          0          0          1
P5414            CIRCULAR     9.00       0          0          0          1
P5415            CIRCULAR     9.00       0          0          0          1
P5416            CIRCULAR     8.00       0          0          0          1
P5417            CIRCULAR     8.00       0          0          0          1
P5418            CIRCULAR     8.00       0          0          0          1
P75405           CIRCULAR     9.00       0          0          0          1
P75411           CIRCULAR     9.00       0          0          0          1
P75417           CIRCULAR     8.00       0          0          0          1
P5702            CIRCULAR     11.67      0          0          0          1
P5703            CIRCULAR     10.50      0          0          0          1

[LOSSES]
;;Link           Inlet      Outlet     Average    Flap Gate
;;-------------- ---------- ---------- ---------- ----------
P5606            0          0          0          NO
P5607            0          0          0          NO
P5401            0          0          0          NO
P5402            0          0          0          NO
P5403            0          0          0          NO
P5404            0          0          0          NO
P5405            0          0          0          NO
P5406            0          0          0          NO
P5407            0          0          0          NO
P5408            0          0          0          NO
P5409            0          0          0          NO
P5410            0          0          0          NO
P5411            0          0          0          NO
P5412            0          0          0          NO
P5413            0          0          0          NO
P5414            0          0          0          NO
P5415            0          0          0          NO
P5416            0          0          0          NO
P5417            0          0          0          NO
P5418            0          0          0          NO
P75405           0          0          0          NO
P75411           0          0          0          NO
P75417           0          0          0          NO
P5702            0          0          0          NO
P5703            0          0          0          NO

[INFLOWS]
;;Node           Constituent  Time Series      Type     Mfactor  Sfactor  Baseline Pattern
;;-------------- ------------ ---------------- -------- -------- -------- -------- --------
5401             FLOW         ""               FLOW     1.0      1.0      222.50
5702             FLOW         ""               FLOW     1.0      1.0      418.00

[COORDINATES]
;;Node           X-Coord            Y-Coord
;;-------------- ------------------ ------------------
5606             -157802.36         2057347.64        
5607             -153566.36         2054245.64        
75608            -150326.36         2054284.64        
5608             -149826.36         2054284.64        
5401             -127276.36         2166775.64        
5402             -122153.36         2160687.64        
5403             -121228.36         2158673.64        
5404             -120466.36         2155662.64        
5405             -119495.36         2153615.64        
5406             -118205.36         2151046.64        
5407             -119456.36         2143200.64        
5408             -124206.36         2132370.64        
5409             -124933.36         2126852.64        
5410             -126613.36         2123395.64        
5411             -127782.36         2121571.64        
5412             -135196.36         2109409.64        
5413             -140951.36         2098171.64        
5414             -145089.36         2091936.64        
5415             -144392.36         2089236.64        
5416             -142402.36         2080089.64        
5417             -143471.36         2074105.64        
5418             -145119.36         2065965.64        
75405            -119492.36         2153609.64        
75411            -127786.36         2121565.64        
75417            -143571.36         2073705.64        
5702             -133112.36         2172396.64        
5703             -141452.36         2174855.64        
5704             -151669.36         2173958.64        

[MAP]
DIMENSIONS -157802.36 2054245.64 -118205.36 2174855.64
Units      None

[REPORT]
INPUT            YES
SUBCATCHMENTS    ALL
NODES            ALL
LINKS            ALL



