;; SWMM5 .inp converted from XPSWMM .xp file
;; Generated by XPSWMM Card Reader
;; Source format: XP_CARD | Original title: (none)

[TITLE]
;;Project Title/Notes
Converted from XPSWMM .xp file

[OPTIONS]
FLOW_UNITS           CFS
INFILTRATION         HORTON
FLOW_ROUTING         DYNWAVE
LINK_OFFSETS         DEPTH
MIN_SLOPE            0.0
ALLOW_PONDING        NO
SKIP_STEADY_STATE    NO
INERTIAL_DAMPING     PARTIAL
NORMAL_FLOW_LIMITED  BOTH

[JUNCTIONS]
;;Name           Elev       MaxDepth   InitDepth  SurDepth   Aponded
;;-------------- ---------- ---------- ---------- ---------- ----------
0                0          0          0          0          0
0                0          0          0          0          0
0                0          0          0          0          0
0                0          0          0          0          0
0                0          0          0          0          0
0                0          0          0          0          0
0                0          0          0          0          0
0                0          0          0          0          0
0                0          0          0          0          0
0                0          0          0          0          0
0                0          0          0          0          0
0                0          0          0          0          0
0                0          0          0          0          0
0                0          0          0          0          0
0                0          0          0          0          0
0                0          0          0          0          0
0                0          0          0          0          0
0                0          0          0          0          0
0                0          0          0          0          0
0                0          0          0          0          0
0                0          0          0          0          0

[CONDUITS]
;;Name           From             To               Length     Roughness  InOffset   OutOffset  InitFlow   MaxFlow
;;-------------- ---------------- ---------------- ---------- ---------- ---------- ---------- ---------- ----------
214              ?                0                0          0          0          0          0          0
215              ?                0                0          0          0          0          0          0
219              ?                0                0          0          0          0          0          0
222              ?                0                0          0          0          0          0          0
220              ?                0                0          0          0          0          0          0
226              ?                0                0          0          0          0          0          0
226              ?                0                0          0          0          0          0          0
229              ?                0                0          0          0          0          0          0
233              ?                0                0          0          0          0          0          0
234              ?                0                0          0          0          0          0          0
236              ?                0                0          0          0          0          0          0
240              ?                0                0          0          0          0          0          0
243              ?                0                0          0          0          0          0          0
241              ?                0                0          0          0          0          0          0
244              ?                0                0          0          0          0          0          0
241              ?                0                0          0          0          0          0          0

[XSECTIONS]
;;Link           Shape        Geom1      Geom2      Geom3      Geom4      Barrels
;;-------------- ------------ ---------- ---------- ---------- ---------- ----------
214              CIRCULAR     0          0          0          0          1
215              CIRCULAR     0          0          0          0          1
219              CIRCULAR     0          0          0          0          1
222              CIRCULAR     0          0          0          0          1
220              CIRCULAR     0          0          0          0          1
226              CIRCULAR     0          0          0          0          1
226              CIRCULAR     0          0          0          0          1
229              CIRCULAR     0          0          0          0          1
233              CIRCULAR     0          0          0          0          1
234              CIRCULAR     0          0          0          0          1
236              CIRCULAR     0          0          0          0          1
240              CIRCULAR     0          0          0          0          1
243              CIRCULAR     0          0          0          0          1
241              CIRCULAR     0          0          0          0          1
244              CIRCULAR     0          0          0          0          1
241              CIRCULAR     0          0          0          0          1

[LOSSES]
;;Link           Inlet      Outlet     Average    Flap Gate
;;-------------- ---------- ---------- ---------- ----------
214              0          0          0          NO
215              0          0          0          NO
219              0          0          0          NO
222              0          0          0          NO
220              0          0          0          NO
226              0          0          0          NO
226              0          0          0          NO
229              0          0          0          NO
233              0          0          0          NO
234              0          0          0          NO
236              0          0          0          NO
240              0          0          0          NO
243              0          0          0          NO
241              0          0          0          NO
244              0          0          0          NO
241              0          0          0          NO

[COORDINATES]
;;Node           X-Coord            Y-Coord
;;-------------- ------------------ ------------------
0                70.77              -0.50             
0                99.50              -0.50             
0                99.50              19.50             
0                71.93              34.84             
0                83.76              47.41             
0                69.09              59.19             
0                98.91              39.55             
0                70.04              69.01             
0                98.91              68.22             
0                99.39              87.46             
0                71.46              87.07             
0                111.70             20.31             
0                112.64             5.00              
0                133.00             5.00              
0                133.00             21.88             
0                111.22             38.38             
0                126.84             37.98             
0                112.17             56.83             
0                126.84             57.23             
0                138.68             38.38             
0                140.10             57.62             

[MAP]
DIMENSIONS 69.09 -0.50 140.10 87.46
Units      None

[REPORT]
INPUT            YES
SUBCATCHMENTS    ALL
NODES            ALL
LINKS            ALL



