;; SWMM5 .inp converted from XPSWMM .xp file
;; Generated by XPSWMM Card Reader
;; Source format: XP_CARD | Original title: Kelowna Downtown Drainage Study - Existing System; 10 Year Storm

[TITLE]
;;Project Title/Notes
Kelowna Downtown Drainage Study - Existing System; 10 Year Storm

[OPTIONS]
FLOW_UNITS           CMS
INFILTRATION         HORTON
FLOW_ROUTING         DYNWAVE
LINK_OFFSETS         DEPTH
MIN_SLOPE            0.0
ALLOW_PONDING        NO
SKIP_STEADY_STATE    NO
INERTIAL_DAMPING     PARTIAL
NORMAL_FLOW_LIMITED  BOTH

[JUNCTIONS]
;;Name           Elev       MaxDepth   InitDepth  SurDepth   Aponded
;;-------------- ---------- ---------- ---------- ---------- ----------
1100             344.94     0          0          0          0
1110             345.27     0          0          0          0
1120             345.04     0          0          0          0
1255             345.14     0          0          0          0
1310             345.05     0          0          0          0
1320             345.62     0          0          0          0
1360             343.14     0          0          0          0
1365             343.75     0          0          0          0
1390             344.22     0          0          0          0
1395             343.82     0          0          0          0
1660             343.66     0          0          0          0
1665             345.96     0          0          0          0
1670             345.99     0          0          0          0
2025             346.83     0          0          0          0
2030             345.74     0          0          0          0
2035             346.32     0          0          0          0
2040             344.64     0          0          0          0
2045             344.27     0          0          0          0
2050             344.90     0          0          0          0
2130             345.20     0          0          0          0
2135             345.13     0          0          0          0
2140             345.45     0          0          0          0
2145             345.20     0          0          0          0
2150             345.30     0          0          0          0
2155             345.43     0          0          0          0
2160             344.53     0          0          0          0
2625             345.26     0          0          0          0
2920             345.22     0          0          0          0
2985             345.57     0          0          0          0
3065             343.69     0          0          0          0
3070             343.66     0          0          0          0
3075             344.30     0          0          0          0
3120             343.81     0          0          0          0
1015             342.90     0          0          0          0
3510             344.69     0          0          0          0
3512             345.08     0          0          0          0
3511             344.58     0          0          0          0
3513             344.39     0          0          0          0

[CONDUITS]
;;Name           From             To               Length     Roughness  InOffset   OutOffset  InitFlow   MaxFlow
;;-------------- ---------------- ---------------- ---------- ---------- ---------- ---------- ---------- ----------
6245             3512             3511             80.10      0.0130     343.60     343.60     0          0
6765             2150             2160             113.40     0.0120     343.50     343.40     0          0
6785             2130             2135             61.70      0.0120     344.10     343.70     0          0
6770             2145             2150             6.90       0.0120     343.50     343.50     0          0
6775             2140             2145             58.50      0.0120     343.60     343.50     0          0
6790             2625             2140             102.10     0.0120     344.10     343.90     0          0
6780             2135             2140             39.50      0.0120     343.70     343.60     0          0
6795             2985             2625             106.50     0.0120     344.30     344.10     0          0
6955             2035             2025             76.50      0.0110     344.80     344.60     0          0
6945             2030             2985             115.40     0.0110     344.60     344.30     0          0
6950             2025             2030             47.10      0.0110     344.60     344.60     0          0
6250             3513             3511             86.30      0.0130     343.60     343.60     0          0
6925             3510             2040             100.60     0.0130     343.50     343.40     0          0
6240             2040             2045             55.10      0.0130     343.40     343.40     0          0
6725             1120             1310             45.70      0.0120     343.60     343.40     0          0
6735             1310             1110             92.00      0.0120     343.10     343.10     0          0
6740             2160             1310             111.50     0.0120     343.20     343.10     0          0
6745             2155             2160             25.00      0.0120     343.70     343.50     0          0
6750             1320             2155             38.50      0.0120     344.00     343.70     0          0
6760             1670             1665             37.20      0.0120     344.70     344.40     0          0
6755             1665             1320             39.10      0.0120     344.40     344.10     0          0
6215             3070             1360             53.20      0.0120     341.30     341.00     0          0
6210             1360             1015             73.20      0.0110     341.00     339.60     0          0
6225             1395             1365             148.90     0.0120     341.90     341.60     0          0
6220             1660             1365             56.40      0.0130     342.30     341.70     0          0
6255             1100             1395             178.30     0.0120     342.70     342.40     0          0
6235             2045             1390             95.00      0.0130     343.30     343.10     0          0
6230             1390             1395             6.40       0.0120     343.10     342.90     0          0
6835             1255             1100             33.50      0.0120     343.20     342.70     0          0
6830             2050             1100             114.10     0.0120     342.90     342.60     0          0
6730             1110             2050             95.90      0.0120     343.00     342.90     0          0
6840             2920             1255             70.10      0.0120     343.40     343.20     0          0
7015             3065             3070             91.30      0.0110     341.90     341.60     0          0
7020             3120             3065             59.20      0.0130     343.00     342.50     0          0
7095             3075             3120             79.80      0.0130     343.20     343.00     0          0
7100             1365             3070             4.70       0.0120     341.20     341.30     0          0
5000             3511             3510             16.50      0.0120     343.50     343.50     0          0

[XSECTIONS]
;;Link           Shape        Geom1      Geom2      Geom3      Geom4      Barrels
;;-------------- ------------ ---------- ---------- ---------- ---------- ----------
6245             CIRCULAR     0.15       0          0          0          1
6765             CIRCULAR     0.45       0          0          0          1
6785             CIRCULAR     0.25       0          0          0          1
6770             CIRCULAR     0.45       0          0          0          1
6775             CIRCULAR     0.45       0          0          0          1
6790             CIRCULAR     0.25       0          0          0          1
6780             CIRCULAR     0.25       0          0          0          1
6795             CIRCULAR     0.25       0          0          0          1
6955             CIRCULAR     0.25       0          0          0          1
6945             CIRCULAR     0.25       0          0          0          1
6950             CIRCULAR     0.25       0          0          0          1
6250             CIRCULAR     0.20       0          0          0          1
6925             CIRCULAR     0.20       0          0          0          1
6240             CIRCULAR     0.20       0          0          0          1
6725             CIRCULAR     0.25       0          0          0          1
6735             CIRCULAR     0.60       0          0          0          1
6740             CIRCULAR     0.60       0          0          0          1
6745             CIRCULAR     0.30       0          0          0          1
6750             CIRCULAR     0.20       0          0          0          1
6760             CIRCULAR     0.20       0          0          0          1
6755             CIRCULAR     0.20       0          0          0          1
6215             CIRCULAR     0.60       0          0          0          1
6210             CIRCULAR     0.55       0          0          0          1
6225             CIRCULAR     0.60       0          0          0          1
6220             CIRCULAR     0.25       0          0          0          1
6255             CIRCULAR     0.60       0          0          0          1
6235             CIRCULAR     0.20       0          0          0          1
6230             CIRCULAR     0.30       0          0          0          1
6835             CIRCULAR     0.30       0          0          0          1
6830             CIRCULAR     0.60       0          0          0          1
6730             CIRCULAR     0.60       0          0          0          1
6840             CIRCULAR     0.30       0          0          0          1
7015             CIRCULAR     0.38       0          0          0          1
7020             CIRCULAR     0.20       0          0          0          1
7095             CIRCULAR     0.20       0          0          0          1
7100             CIRCULAR     0.60       0          0          0          1
5000             CIRCULAR     0.20       0          0          0          1

[LOSSES]
;;Link           Inlet      Outlet     Average    Flap Gate
;;-------------- ---------- ---------- ---------- ----------
6245             0          0          0          NO
6765             0          0          0          NO
6785             0          0          0          NO
6770             0          0          0          NO
6775             0          0          0          NO
6790             0          0          0          NO
6780             0          0          0          NO
6795             0          0          0          NO
6955             0          0          0          NO
6945             0          0          0          NO
6950             0          0          0          NO
6250             0          0          0          NO
6925             0          0          0          NO
6240             0          0          0          NO
6725             0          0          0          NO
6735             0          0          0          NO
6740             0          0          0          NO
6745             0          0          0          NO
6750             0          0          0          NO
6760             0          0          0          NO
6755             0          0          0          NO
6215             0          0          0          NO
6210             0          0          0          NO
6225             0          0          0          NO
6220             0          0          0          NO
6255             0          0          0          NO
6235             0          0          0          NO
6230             0          0          0          NO
6835             0          0          0          NO
6830             0          0          0          NO
6730             0          0          0          NO
6840             0          0          0          NO
7015             0          0          0          NO
7020             0          0          0          NO
7095             0          0          0          NO
7100             0          0          0          NO
5000             0          0          0          NO

[COORDINATES]
;;Node           X-Coord            Y-Coord
;;-------------- ------------------ ------------------
1100             -5530531.08        321416.17         
1110             -5530413.26        321506.47         
1120             -5530322.98        321458.78         
1255             -5530564.61        321417.60         
1310             -5530321.06        321504.85         
1320             -5530343.47        321655.43         
1360             -5530544.24        321031.37         
1365             -5530542.57        321089.28         
1390             -5530534.26        321243.07         
1395             -5530538.29        321238.09         
1660             -5530487.24        321078.45         
1665             -5530367.91        321685.18         
1670             -5530391.92        321714.42         
2025             -5530234.98        321864.99         
2030             -5530250.06        321820.07         
2035             -5530188.52        321924.85         
2040             -5530384.27        321237.46         
2045             -5530438.29        321239.52         
2050             -5530418.73        321411.83         
2130             -5530145.92        321507.33         
2135             -5530143.37        321568.70         
2140             -5530140.67        321608.58         
2145             -5530200.08        321610.08         
2150             -5530206.53        321612.48         
2155             -5530344.86        321616.98         
2160             -5530319.86        321616.17         
2625             -5530138.01        321710.11         
2920             -5530633.96        321420.07         
2985             -5530133.68        321816.53         
3065             -5530628.82        321114.29         
3070             -5530542.47        321084.53         
3075             -5530625.96        321252.21         
3120             -5530627.48        321173.42         
1015             -5530546.20        320957.92         
3510             -5530283.74        321233.69         
3512             -5530204.75        321213.77         
3511             -5530284.48        321217.15         
3513             -5530287.05        321130.66         

[MAP]
DIMENSIONS -5530633.96 320957.92 -5530133.68 321924.85
Units      None

[REPORT]
INPUT            YES
SUBCATCHMENTS    ALL
NODES            ALL
LINKS            ALL



