;; SWMM5 .inp converted from XPSWMM .xp file
;; Generated by XPSWMM Card Reader
;; Source format: XP_CARD | Original title: LAKE CITY DRAINAGE BASIN - EXISTING CONDITION 1992

[TITLE]
;;Project Title/Notes
LAKE CITY DRAINAGE BASIN - EXISTING CONDITION 1992

[OPTIONS]
FLOW_UNITS           CFS
INFILTRATION         HORTON
FLOW_ROUTING         DYNWAVE
LINK_OFFSETS         DEPTH
MIN_SLOPE            0.0
ALLOW_PONDING        NO
SKIP_STEADY_STATE    NO
ROUTING_STEP         00:00:30
VARIABLE_STEP        0.75
INERTIAL_DAMPING     NONE
NORMAL_FLOW_LIMITED  BOTH
MAX_TRIALS           50
HEAD_TOLERANCE       0.000

[JUNCTIONS]
;;Name           Elev       MaxDepth   InitDepth  SurDepth   Aponded
;;-------------- ---------- ---------- ---------- ---------- ----------
495              168.90     0          0          0          0
5050             170.40     0          0          0          0
5750             170.30     0          0          0          0
8130             170.00     0          0          0          0
8090             169.00     0          0          0          0
6050             155.20     0          0          0          0
6250             154.00     0          0          0          0
6350             152.20     0          0          0          0
6450             150.10     0          0          0          0
6550             150.00     0          0          0          0
465              193.20     0          0          0          0
475              191.50     0          0          0          0
485              175.50     0          0          0          0
505              168.10     0          0          0          0
515              168.00     0          0          0          0
565              167.90     0          0          0          0
575              167.10     0          0          0          0
585              165.70     0          0          0          0
595              165.50     0          0          0          0
605              160.50     0          0          0          0
625              155.50     0          0          0          0
635              152.50     0          0          0          0
645              150.50     0          0          0          0
655              140.50     0          0          0          0
665              135.00     0          0          0          0
675              125.00     0          0          0          0
679              124.00     0          0          0          0
685              90.50      0          0          0          0
695              80.50      0          0          0          0
725              91.50      0          0          0          0
735              90.70      0          0          0          0
705              75.50      0          0          0          0

[STORAGE]
;;Name           Elev       MaxDepth   InitDepth  Shape      Curve/Params
;;-------------- ---------- ---------- ---------- ---------- ----------
5950             168.50     0          0          FUNCTIONAL 12.57 0          0

[CONDUITS]
;;Name           From             To               Length     Roughness  InOffset   OutOffset  InitFlow   MaxFlow
;;-------------- ---------------- ---------------- ---------- ---------- ---------- ---------- ---------- ----------
5100             495              5050             70.00      0.0240     161.80     160.90     0          0
5120             5050             5750             300.00     0.0130     160.40     156.80     0          0
5320             5750             8130             300.00     0.0130     156.80     153.68     0          0
8100             8130             8090             172.60     0.0130     153.68     153.34     0          0
8080             8090             5950             100.00     0.0130     153.34     153.11     0          0
6000             5950             6050             130.00     0.0130     153.11     149.30     0          0
6200             6050             6250             250.00     0.0350     149.30     145.10     0          0
6300             6250             6350             130.00     0.0130     145.10     142.60     0          0
6400             6350             6450             350.00     0.0350     142.60     137.50     0          0
6500             6450             6550             110.00     0.0130     137.50     134.50     0          0
480              465              475              550.00     0.0130     185.50     183.90     0          0
490              475              485              750.00     0.0130     183.90     167.80     0          0
500              485              495              150.00     0.0350     167.80     161.80     0          0
510              495              505              70.00      0.0130     161.80     160.90     0          0
520              505              515              100.00     0.0130     160.90     160.50     0          0
530              515              565              70.00      0.0130     160.50     160.10     0          0
570              565              575              77.00      0.0130     160.10     159.50     0          0
580              575              585              120.00     0.0130     159.50     159.00     0          0
590              585              595              172.00     0.0130     159.00     157.50     0          0
600              595              605              130.00     0.0130     157.50     153.10     0          0
620              605              625              300.00     0.0350     153.10     145.10     0          0
630              625              635              130.00     0.0130     145.10     141.70     0          0
640              635              645              350.00     0.0350     141.70     137.50     0          0
650              645              655              110.00     0.0130     137.50     134.50     0          0
660              655              665              600.00     0.0350     134.50     119.50     0          0
670              665              675              69.00      0.0130     119.50     116.50     0          0
680              675              679              650.00     0.0350     116.50     100.00     0          0
6802             679              685              650.00     0.0350     100.00     78.20      0          0
690              700              695              56.00      0.0130     78.20      72.80      0          0
720              725              735              330.00     0.0350     83.50      79.10      0          0
730              735              695              120.00     0.0350     79.10      72.80      0          0
710              695              705              350.00     0.0350     72.80      72.00      0          0

[XSECTIONS]
;;Link           Shape        Geom1      Geom2      Geom3      Geom4      Barrels
;;-------------- ------------ ---------- ---------- ---------- ---------- ----------
5100             CIRCULAR     4.00       0          0          0          1
5120             CIRCULAR     5.00       0          0          0          1
5320             CIRCULAR     5.00       0          0          0          1
8100             CIRCULAR     5.00       0          0          0          1
8080             CIRCULAR     5.00       8.00       0          0          1
6000             CIRCULAR     2.00       0          0          0          1
6200             TRAPEZOIDAL  4.00       9.50       0          0          1
6300             CIRCULAR     2.50       0          0          0          1
6400             TRAPEZOIDAL  3.50       6.50       0          0          1
6500             CIRCULAR     2.50       0          0          0          1
480              CIRCULAR     2.00       0          0          0          1
490              CIRCULAR     2.50       0          0          0          1
500              TRAPEZOIDAL  4.50       6.00       0          0          1
510              CIRCULAR     4.00       0          0          0          1
520              CIRCULAR     5.00       0          0          0          1
530              CIRCULAR     5.00       0          0          0          1
570              CIRCULAR     5.00       0          0          0          1
580              CIRCULAR     5.00       0          0          0          1
590              CIRCULAR     5.00       0          0          0          1
600              CIRCULAR     5.00       0          0          0          1
620              TRAPEZOIDAL  5.00       7.50       0          0          1
630              CIRCULAR     2.00       0          0          0          1
640              TRAPEZOIDAL  5.00       4.00       0          0          1
650              CIRCULAR     2.50       0          0          0          1
660              TRAPEZOIDAL  5.00       4.00       0          0          1
670              CIRCULAR     2.50       0          0          0          1
680              TRAPEZOIDAL  5.00       4.00       0          0          1
6802             TRAPEZOIDAL  5.00       4.00       0          0          1
690              CIRCULAR     3.00       0          0          0          1
720              TRAPEZOIDAL  5.00       4.00       0          0          1
730              RECT_CLOSED  6.70       4.90       0          0          1
710              TRAPEZOIDAL  3.00       4.00       0          0          1

[LOSSES]
;;Link           Inlet      Outlet     Average    Flap Gate
;;-------------- ---------- ---------- ---------- ----------
5100             0          0          0          NO
5120             0          0          0          NO
5320             0          0          0          NO
8100             0          0          0          NO
8080             0          0          0          NO
6000             0          0          0          NO
6200             0          0          0          NO
6300             0          0          0          NO
6400             0          0          0          NO
6500             0          0          0          NO
480              0          0          0          NO
490              0          0          0          NO
500              0          0          0          NO
510              0          0          0          NO
520              0          0          0          NO
530              0          0          0          NO
570              0          0          0          NO
580              0          0          0          NO
590              0          0          0          NO
600              0          0          0          NO
620              0          0          0          NO
630              0          0          0          NO
640              0          0          0          NO
650              0          0          0          NO
660              0          0          0          NO
670              0          0          0          NO
680              0          0          0          NO
6802             0          0          0          NO
690              0          0          0          NO
720              0          0          0          NO
730              0          0          0          NO
710              0          0          0          NO

[COORDINATES]
;;Node           X-Coord            Y-Coord
;;-------------- ------------------ ------------------
495              -123.76            -512.81           
5050             -94.50             -429.97           
5750             -5.72              -365.30           
8130             77.63              -290.92           
8090             113.28             -182.77           
6050             -139.88            84.34             
6250             -152.67            222.50            
6350             -101.26            317.78            
6450             -125.83            428.26            
6550             -101.15            531.23            
5950             -52.95             -85.46            
465              -583.76            -550.64           
475              -470.31            -562.91           
485              -307.33            -535.11           
505              -47.05             -633.91           
515              16.27              -691.79           
565              67.00              -775.08           
575              56.78              -878.78           
585              -4.50              -1006.69          
595              71.74              -1089.07          
605              57.91              -1202.90          
625              102.30             -1294.71          
635              162.78             -1356.09          
645              204.68             -1474.97          
655              215.00             -1583.68          
665              207.47             -1681.77          
675              72.56              -1715.69          
679              -34.85             -1794.40          
685              -160.35            -1810.22          
695              -250.04            -1837.16          
725              -382.98            -2045.06          
735              -369.89            -1913.28          
705              -341.24            -1610.21          

[MAP]
DIMENSIONS -583.76 -2045.06 215.00 531.23
Units      None

[REPORT]
INPUT            YES
SUBCATCHMENTS    ALL
NODES            ALL
LINKS            ALL



