;; SWMM5 .inp converted from XPSWMM .xp file
;; Generated by XPSWMM Card Reader
;; Source format: XP_CARD | Original title: LANCASTER,PA.

[TITLE]
;;Project Title/Notes
LANCASTER,PA.

[OPTIONS]
FLOW_UNITS           CFS
INFILTRATION         HORTON
FLOW_ROUTING         DYNWAVE
LINK_OFFSETS         DEPTH
MIN_SLOPE            0.0
ALLOW_PONDING        NO
SKIP_STEADY_STATE    NO
INERTIAL_DAMPING     PARTIAL
NORMAL_FLOW_LIMITED  BOTH

[JUNCTIONS]
;;Name           Elev       MaxDepth   InitDepth  SurDepth   Aponded
;;-------------- ---------- ---------- ---------- ---------- ----------
4                0          0          0          0          0
5                0          0          0          0          0
DUMMY1           0          0          0          0          0
508              0          0          0          0          0
DUMMY2           0          0          0          0          0
DUMMY3           0          0          0          0          0
DUMMY4           0          0          0          0          0
8                0          0          0          0          0
12               0          0          0          0          0
13               0          0          0          0          0
14               0          0          0          0          0
DUMMY6           0          0          0          0          0
16               0          0          0          0          0
DUMMY7           0          0          0          0          0
19               0          0          0          0          0
20               0          0          0          0          0
DUMMY8           0          0          0          0          0
DUMMY9           0          0          0          0          0
DUMMY10          0          0          0          0          0
25               0          0          0          0          0
DUMMY11          0          0          0          0          0
DUMMY12          0          0          0          0          0
DUMMY13          0          0          0          0          0
DUMMY14          0          0          0          0          0
28               0          0          0          0          0
DUMMY16          0          0          0          0          0
DUMMY17          0          0          0          0          0
6                0          0          0          0          0
7                0          0          0          0          0
9                0          0          0          0          0
10               0          0          0          0          0
11               0          0          0          0          0
DUMMY23          0          0          0          0          0
15               0          0          0          0          0
DUMMY25          0          0          0          0          0
17               0          0          0          0          0
DUMMY27          0          0          0          0          0
21               0          0          0          0          0
22               0          0          0          0          0
DUMMY30          0          0          0          0          0
26               0          0          0          0          0
27               0          0          0          0          0
29               0          0          0          0          0
1                0          0          0          0          0
2                0          0          0          0          0
3                0          0          0          0          0
18               0          0          0          0          0
23               0          0          0          0          0
24               0          0          0          0          0
50               0          0          0          0          0
51               0          0          0          0          0
52               0          0          0          0          0
53               0          0          0          0          0
54               0          0          0          0          0
55               0          0          0          0          0
56               0          0          0          0          0
57               0          0          0          0          0
58               0          0          0          0          0
300              0          0          0          0          0
60               0          0          0          0          0

[CONDUITS]
;;Name           From             To               Length     Roughness  InOffset   OutOffset  InitFlow   MaxFlow
;;-------------- ---------------- ---------------- ---------- ---------- ---------- ---------- ---------- ----------
804              DUMMY16          4                409.00     0.0130     0          0          0          0
805              DUMMY17          5                280.00     0.0130     0          0          0          0
806              6                DUMMY1           428.00     0.0130     0          0          0          0
906              DUMMY1           5                270.00     0.0130     0          0          0          0
807              7                508              230.00     0.0130     0          0          0          0
907              508              DUMMY1           148.00     0.0130     0          0          0          0
808              8                DUMMY2           481.00     0.0130     0          0          0          0
908              DUMMY2           508              434.00     0.0130     0          0          0          0
809              9                DUMMY3           360.00     0.0130     0          0          0          0
909              DUMMY3           DUMMY2           195.00     0.0130     0          0          0          0
810              10               DUMMY4           341.00     0.0130     0          0          0          0
910              DUMMY4           DUMMY2           274.00     0.0130     0          0          0          0
811              11               8                231.00     0.0130     0          0          0          0
812              DUMMY23          12               430.50     0.0130     0          0          0          0
813              DUMMY7           13               367.00     0.0130     0          0          0          0
814              DUMMY6           14               420.00     0.0130     0          0          0          0
815              15               DUMMY6           75.00      0.0130     0          0          0          0
816              DUMMY25          16               277.00     0.0130     0          0          0          0
817              17               DUMMY7           394.00     0.0130     0          0          0          0
819              DUMMY27          19               254.00     0.0130     0          0          0          0
820              DUMMY9           20               210.00     0.0130     0          0          0          0
821              21               DUMMY8           336.00     0.0130     0          0          0          0
921              DUMMY8           DUMMY9           210.00     0.0130     0          0          0          0
822              22               DUMMY10          208.00     0.0130     0          0          0          0
922              DUMMY10          20               278.00     0.0130     0          0          0          0
825              DUMMY30          25               244.00     0.0130     0          0          0          0
826              26               DUMMY11          358.00     0.0130     0          0          0          0
926              DUMMY11          25               280.00     0.0130     0          0          0          0
827              27               DUMMY12          236.00     0.0130     0          0          0          0
927              DUMMY12          DUMMY13          260.00     0.0130     0          0          0          0
930              DUMMY13          DUMMY11          256.00     0.0130     0          0          0          0
828              28               DUMMY14          256.00     0.0130     0          0          0          0
928              DUMMY14          25               312.00     0.0130     0          0          0          0
829              29               28               249.50     0.0130     0          0          0          0
100              1                300              110.00     0.0130     2.20       0          0          0
101              1                50               207.00     0.0130     8.04       0          0          0
102              2                53               269.50     0.0130     7.72       0          0          0
103              3                2                600.00     0.0130     27.33      0          0          0
104              4                3                257.00     0.0130     3.92       0          0          0
105              5                54               523.00     0.0130     11.11      0          0          0
112              12               3                286.00     0.0130     5.05       0          0          0
113              13               12               280.00     0.0130     4.94       0          0          0
114              14               13               255.00     0.0130     3.15       0          0          0
116              16               55               205.00     0.0130     13.91      0          0          0
118              18               16               544.00     0.0130     16.07      0          0          0
119              19               18               250.00     0.0130     6.00       0          0          0
120              20               56               230.00     0.0130     4.89       0          0          0
123              23               13               420.00     0.0130     14.60      0          0          0
124              24               23               200.00     0.0130     3.45       0          0          0
125              25               24               388.00     0.0130     15.02      0          0          0
151              51               1                162.00     0.0130     6.29       0          0          0
152              52               51               277.00     0.0130     9.60       0          0          0
153              53               52               298.80     0.0130     13.15      0          0          0
154              54               3                270.00     0.0130     4.43       0          0          0
155              55               14               271.00     0.0130     11.98      0          0          0
156              56               19               190.00     0.0130     6.00       0          0          0
157              57               1                152.00     0.0130     4.57       0          0          0
158              58               57               541.00     0.0130     34.56      0          0          0

[XSECTIONS]
;;Link           Shape        Geom1      Geom2      Geom3      Geom4      Barrels
;;-------------- ------------ ---------- ---------- ---------- ---------- ----------
804              CIRCULAR     1.50       0          0          0          1
805              CIRCULAR     1.00       0          0          0          1
806              CIRCULAR     0.67       0          0          0          1
906              CIRCULAR     2.00       0          0          0          1
807              CIRCULAR     1.00       0          0          0          1
907              CIRCULAR     2.00       0          0          0          1
808              CIRCULAR     2.00       0          0          0          1
908              CIRCULAR     2.00       0          0          0          1
809              CIRCULAR     0.67       0          0          0          1
909              CIRCULAR     0.87       0          0          0          1
810              CIRCULAR     0.87       0          0          0          1
910              CIRCULAR     1.00       0          0          0          1
811              CIRCULAR     1.25       0          0          0          1
812              CIRCULAR     0.67       0          0          0          1
813              CIRCULAR     0.67       0          0          0          1
814              CIRCULAR     1.00       0          0          0          1
815              CIRCULAR     1.00       0          0          0          1
816              CIRCULAR     1.50       0          0          0          1
817              CIRCULAR     1.25       0          0          0          1
819              CIRCULAR     1.00       0          0          0          1
820              CIRCULAR     2.00       0          0          0          1
821              CIRCULAR     1.00       0          0          0          1
921              CIRCULAR     2.00       0          0          0          1
822              CIRCULAR     1.00       0          0          0          1
922              CIRCULAR     1.50       0          0          0          1
825              CIRCULAR     1.00       0          0          0          1
826              CIRCULAR     1.00       0          0          0          1
926              CIRCULAR     2.00       0          0          0          1
827              CIRCULAR     1.50       0          0          0          1
927              CIRCULAR     2.00       0          0          0          1
930              CIRCULAR     2.00       0          0          0          1
828              CIRCULAR     2.00       0          0          0          1
928              CIRCULAR     2.50       0          0          0          1
829              CIRCULAR     2.00       0          0          0          1
100              CIRCULAR     1.50       0          0          0          1
101              CIRCULAR     5.00       0          0          0          1
102              CIRCULAR     5.00       0          0          0          1
103              CIRCULAR     5.00       0          0          0          1
104              CIRCULAR     2.50       0          0          0          1
105              CIRCULAR     3.00       0          0          0          1
112              CIRCULAR     5.00       0          0          0          1
113              CIRCULAR     5.00       0          0          0          1
114              CIRCULAR     4.00       0          0          0          1
116              CIRCULAR     4.00       0          0          0          1
118              CIRCULAR     4.00       0          0          0          1
119              CIRCULAR     4.00       0          0          0          1
120              CIRCULAR     3.00       0          0          0          1
123              CIRCULAR     3.00       0          0          0          1
124              CIRCULAR     3.00       0          0          0          1
125              CIRCULAR     3.00       0          0          0          1
151              CIRCULAR     5.00       0          0          0          1
152              CIRCULAR     5.00       0          0          0          1
153              CIRCULAR     5.00       0          0          0          1
154              CIRCULAR     3.00       0          0          0          1
155              CIRCULAR     4.00       0          0          0          1
156              CIRCULAR     3.00       0          0          0          1
157              CIRCULAR     1.33       0          0          0          1
158              CIRCULAR     1.33       0          0          0          1

[LOSSES]
;;Link           Inlet      Outlet     Average    Flap Gate
;;-------------- ---------- ---------- ---------- ----------
804              0          0          0          NO
805              0          0          0          NO
806              0          0          0          NO
906              0          0          0          NO
807              0          0          0          NO
907              0          0          0          NO
808              0          0          0          NO
908              0          0          0          NO
809              0          0          0          NO
909              0          0          0          NO
810              0          0          0          NO
910              0          0          0          NO
811              0          0          0          NO
812              0          0          0          NO
813              0          0          0          NO
814              0          0          0          NO
815              0          0          0          NO
816              0          0          0          NO
817              0          0          0          NO
819              0          0          0          NO
820              0          0          0          NO
821              0          0          0          NO
921              0          0          0          NO
822              0          0          0          NO
922              0          0          0          NO
825              0          0          0          NO
826              0          0          0          NO
926              0          0          0          NO
827              0          0          0          NO
927              0          0          0          NO
930              0          0          0          NO
828              0          0          0          NO
928              0          0          0          NO
829              0          0          0          NO
100              0          0          0          NO
101              0          0          0          NO
102              0          0          0          NO
103              0          0          0          NO
104              0          0          0          NO
105              0          0          0          NO
112              0          0          0          NO
113              0          0          0          NO
114              0          0          0          NO
116              0          0          0          NO
118              0          0          0          NO
119              0          0          0          NO
120              0          0          0          NO
123              0          0          0          NO
124              0          0          0          NO
125              0          0          0          NO
151              0          0          0          NO
152              0          0          0          NO
153              0          0          0          NO
154              0          0          0          NO
155              0          0          0          NO
156              0          0          0          NO
157              0          0          0          NO
158              0          0          0          NO

[COORDINATES]
;;Node           X-Coord            Y-Coord
;;-------------- ------------------ ------------------
4                373.11             61.34             
5                368.48             92.86             
DUMMY1           362.30             111.88            
508              363.00             131.86            
DUMMY2           370.49             150.41            
DUMMY3           377.98             168.95            
DUMMY4           386.25             162.72            
8                367.71             170.21            
12               378.97             75.48             
13               370.51             93.60             
14               362.06             111.73            
DUMMY6           347.92             125.87            
16               358.57             151.58            
DUMMY7           354.13             105.08            
19               368.93             190.21            
20               391.87             222.98            
DUMMY8           402.22             261.62            
DUMMY9           397.05             242.30            
DUMMY10          408.25             234.45            
25               375.74             153.38            
DUMMY11          377.49             173.30            
DUMMY12          394.39             209.55            
DUMMY13          385.94             191.43            
DUMMY14          387.21             169.76            
28               398.69             186.14            
DUMMY16          353.11             61.34             
DUMMY17          351.52             103.45            
6                349.99             127.64            
7                356.82             150.89            
9                385.48             187.50            
10               402.01             175.03            
11               364.92             190.02            
DUMMY23          360.84             83.93             
15               333.78             140.01            
DUMMY25          350.12             169.70            
17               337.75             116.55            
DUMMY27          367.18             210.14            
21               407.40             280.94            
22               424.64             245.92            
DUMMY30          367.29             171.50            
26               372.31             192.62            
27               402.84             227.68            
29               410.16             202.52            
1                493.11             61.34             
2                413.11             61.34             
3                393.11             61.34             
18               363.75             170.90            
23               372.26             113.53            
24               374.00             133.45            
50               533.11             61.34             
51               473.11             61.34             
52               453.11             61.34             
53               433.11             61.34             
54               380.79             77.10             
55               360.32             131.65            
56               380.40             206.60            
57               493.11             81.34             
58               493.11             101.34            
300              513.11             61.34             
60               396.76             140.80            

[MAP]
DIMENSIONS 333.78 61.34 533.11 280.94
Units      None

[REPORT]
INPUT            YES
SUBCATCHMENTS    ALL
NODES            ALL
LINKS            ALL



