;; SWMM5 .inp converted from XPSWMM .xp file
;; Generated by XPSWMM Card Reader
;; Source format: XP_CARD | Original title: LONGFIELDS/DAVIDSON HEIGHTS - UPDATE MODELLING - JULY 01,1979 - LDJLYF7.XP

[TITLE]
;;Project Title/Notes
LONGFIELDS/DAVIDSON HEIGHTS - UPDATE MODELLING - JULY 01,1979 - LDJLYF7.XP

[OPTIONS]
FLOW_UNITS           CMS
INFILTRATION         HORTON
FLOW_ROUTING         DYNWAVE
LINK_OFFSETS         DEPTH
MIN_SLOPE            0.0
ALLOW_PONDING        NO
SKIP_STEADY_STATE    NO
ROUTING_STEP         00:00:60
VARIABLE_STEP        0.75
INERTIAL_DAMPING     PARTIAL
NORMAL_FLOW_LIMITED  BOTH
MAX_TRIALS           100
HEAD_TOLERANCE       0.0033

[JUNCTIONS]
;;Name           Elev       MaxDepth   InitDepth  SurDepth   Aponded
;;-------------- ---------- ---------- ---------- ---------- ----------
0                92.60      0          0          0          0
0                92.75      0          0          0          0
0                92.20      0          0          0          0
0                92.00      0          0          0          0
0                91.59      0          0          0          0
0                91.25      0          0          0          0
0                91.15      0          0          0          0
0                90.45      0          0          0          0
0                88.00      0          0          0          0
0                92.70      0          0          0          0
0                92.85      0          0          0          0
0                92.50      0          0          0          0
0                92.15      0          0          0          0
0                91.73      0          0          0          0
0                91.60      0          0          0          0
0                91.25      0          0          0          0
0                91.17      0          0          0          0
0                90.91      0          0          0          0
0                90.77      0          0          0          0
0                91.04      0          0          0          0
0                90.80      0          0          0          0
0                90.71      0          0          0          0
0                90.29      0          0          0          0
0                89.70      0          0          0          0
0                89.00      0          0          0          0
0                89.00      0          0          0          0
0                93.00      0          0          0          0
0                96.00      0          0          0          0
0                93.00      0          0          0          0
0                91.30      0          0          0          0
0                91.50      0          0          0          0
0                91.20      0          0          0          0
0                91.00      0          0          0          0
0                90.90      0          0          0          0
0                90.00      0          0          0          0
0                90.00      0          0          0          0
0                90.98      0          0          0          0
0                90.31      0          0          0          0
0                93.00      0          0          0          0
0                92.00      0          0          0          0
0                91.30      0          0          0          0
0                91.80      0          0          0          0
0                91.00      0          0          0          0
0                89.70      0          0          0          0
0                91.50      0          0          0          0
0                91.90      0          0          0          0
0                93.00      0          0          0          0
0                93.00      0          0          0          0
0                93.20      0          0          0          0
0                93.30      0          0          0          0

[STORAGE]
;;Name           Elev       MaxDepth   InitDepth  Shape      Curve/Params
;;-------------- ---------- ---------- ---------- ---------- ----------
0                94.00      -2.00      0          FUNCTIONAL 100.00 0          0

[CONDUITS]
;;Name           From             To               Length     Roughness  InOffset   OutOffset  InitFlow   MaxFlow
;;-------------- ---------------- ---------------- ---------- ---------- ---------- ---------- ---------- ----------
338              0                0                183.00     0.0130     85.29      85.06      0          0
340              0                0                138.00     0.0130     85.06      84.88      0          0
342              0                0                134.00     0.0130     84.88      84.74      0          0
344              0                0                196.00     0.0130     84.74      84.55      0          0
346              0                0                216.00     0.0130     84.55      84.33      0          0
348              0                0                139.00     0.0130     84.33      84.19      0          0
382              0                0                50.00      0.0130     89.31      89.21      0          0
406              0                0                62.00      0.0130     86.78      86.71      0          0
408              0                0                151.00     0.0130     86.71      86.47      0          0
410              0                0                163.20     0.0130     86.47      86.28      0          0
412              0                0                131.00     0.0130     86.20      86.08      0          0
414              0                0                79.50      0.0130     86.08      85.99      0          0
422              0                0                89.00      0.0130     85.81      85.72      0          0
424              0                0                90.70      0.0130     85.72      85.59      0          0
426              0                0                97.30      0.0130     85.40      85.27      0          0
428              0                0                77.00      0.0130     85.18      85.08      0          0
430              0                0                151.00     0.0130     85.08      84.89      0          0
432              0                0                152.00     0.0130     84.89      84.71      0          0
434              0                0                60.30      0.0130     84.71      84.60      0          0
436              0                0                243.30     0.0130     84.45      84.20      0          0
438              0                0                187.00     0.0130     83.90      83.63      0          0
440              0                0                102.40     0.0130     83.63      83.48      0          0
454              0                0                200.00     0.0130     88.74      88.24      0          0
456              0                0                200.00     0.0130     89.32      88.92      0          0
457              0                0                300.00     0.0130     88.77      88.17      0          0
460              0                0                200.00     0.0130     87.73      87.33      0          0
462              0                0                52.00      0.0130     86.97      86.87      0          0
463              0                0                95.00      0.0130     86.87      86.68      0          0
465              0                0                88.00      0.0130     86.68      86.49      0          0
467              0                0                114.00     0.0130     86.34      86.12      0          0
470              0                0                200.00     0.0130     86.54      86.14      0          0
472              0                0                150.00     0.0130     86.82      86.52      0          0
350              0                0                156.00     0.0130     84.19      84.04      0          0
480              0                0                137.00     0.0130     84.04      83.90      0          0
352              0                0                107.00     0.0130     83.90      83.77      0          0
483              0                0                215.00     0.0130     83.77      83.50      0          0
488              0                0                200.00     0.0130     88.29      87.89      0          0
490              0                0                200.00     0.0130     88.09      87.69      0          0
416              0                0                168.80     0.0130     85.99      85.81      0          0
493              0                0                30.50      0.0130     87.40      87.29      0          0
495              0                0                200.00     0.0130     87.28      86.88      0          0
497              0                0                150.00     0.0130     86.93      86.63      0          0
352              0                0                57.00      0.0130     85.12      84.84      0          0
505              0                0                100.00     0.0043     84.23      84.22      0          0
531              0                0                78.00      0.0130     88.09      87.93      0          0
534              0                0                33.50      0.0130     88.19      88.12      0          0
535              0                0                165.00     0.0130     89.17      88.81      0          0
536              0                0                59.00      0.0130     89.44      89.32      0          0
537              0                0                79.00      0.0130     89.90      89.71      0          0

[WEIRS]
;;Name           From             To               Type       CrestHt    Qcoeff     Gated    EndCon   EndCoeff   Surcharge
;;-------------- ---------------- ---------------- ---------- ---------- ---------- -------- -------- ---------- ----------
543              0                0                TRANSVERSE 89.30      1.840      NO       0        0          YES

[XSECTIONS]
;;Link           Shape        Geom1      Geom2      Geom3      Geom4      Barrels
;;-------------- ------------ ---------- ---------- ---------- ---------- ----------
338              CIRCULAR     2.74       0          0          0          1
340              CIRCULAR     2.74       0          0          0          1
342              CIRCULAR     2.74       0          0          0          1
344              CIRCULAR     2.74       0          0          0          1
346              CIRCULAR     2.74       0          0          0          1
348              CIRCULAR     2.74       0          0          0          1
382              CIRCULAR     0.90       0          0          0          1
406              CIRCULAR     2.29       0          0          0          1
408              CIRCULAR     2.29       0          0          0          1
410              CIRCULAR     2.29       0          0          0          1
412              CIRCULAR     2.44       0          0          0          1
414              CIRCULAR     2.44       0          0          0          1
422              CIRCULAR     2.44       0          0          0          1
424              CIRCULAR     2.44       0          0          0          1
426              CIRCULAR     2.59       0          0          0          1
428              CIRCULAR     2.59       0          0          0          1
430              CIRCULAR     2.59       0          0          0          1
432              CIRCULAR     2.59       0          0          0          1
434              CIRCULAR     2.59       0          0          0          1
436              CIRCULAR     2.74       0          0          0          1
438              RECT_CLOSED  3.00       3.00       0          0          1
440              RECT_CLOSED  3.00       3.00       0          0          1
454              CIRCULAR     0.82       0          0          0          1
456              CIRCULAR     0.68       0          0          0          1
457              CIRCULAR     0.82       0          0          0          1
460              CIRCULAR     0.82       0          0          0          1
462              CIRCULAR     1.07       0          0          0          1
463              CIRCULAR     1.07       0          0          0          1
465              CIRCULAR     1.07       0          0          0          1
467              CIRCULAR     1.22       0          0          0          1
470              CIRCULAR     1.05       0          0          0          1
472              CIRCULAR     0.68       0          0          0          1
350              CIRCULAR     2.74       0          0          0          1
480              CIRCULAR     2.74       0          0          0          1
352              CIRCULAR     2.74       0          0          0          1
483              CIRCULAR     2.74       0          0          0          1
488              CIRCULAR     0.75       0          0          0          1
490              CIRCULAR     0.82       0          0          0          1
416              CIRCULAR     2.44       0          0          0          1
493              CIRCULAR     0.75       0          0          0          1
495              CIRCULAR     0.68       0          0          0          1
497              CIRCULAR     0.68       0          0          0          1
352              CIRCULAR     1.52       0          0          0          1
505              CIRCULAR     2.74       0          0          0          1
531              CIRCULAR     0.75       0          0          0          1
534              CIRCULAR     0.68       0          0          0          1
535              CIRCULAR     0.68       0          0          0          1
536              CIRCULAR     0.53       0          0          0          1
537              CIRCULAR     0.53       0          0          0          1
543              RECT_OPEN    0          0.90       0          0          

[LOSSES]
;;Link           Inlet      Outlet     Average    Flap Gate
;;-------------- ---------- ---------- ---------- ----------
338              0          0          0          NO
340              0          0          0          NO
342              0          0          0          NO
344              0          0          0          NO
346              0          0          0          NO
348              0          0          0          NO
382              0          0          0          NO
406              0          0          0          NO
408              0          0          0          NO
410              0          0          0          NO
412              0          0          0          NO
414              0          0          0          NO
422              0          0          0          NO
424              0          0          0          NO
426              0          0          0          NO
428              0          0          0          NO
430              0          0          0          NO
432              0          0          0          NO
434              0          0          0          NO
436              0          0          0          NO
438              0          0          0          NO
440              0          0          0          NO
454              0          0          0          NO
456              0          0          0          NO
457              0          0          0          NO
460              0          0          0          NO
462              0          0          0          NO
463              0          0          0          NO
465              0          0          0          NO
467              0          0          0          NO
470              0          0          0          NO
472              0          0          0          NO
350              0          0          0          NO
480              0          0          0          NO
352              0          0          0          NO
483              0          0          0          NO
488              0          0          0          NO
490              0          0          0          NO
416              0          0          0          NO
493              0          0          0          NO
495              0          0          0          NO
497              0          0          0          NO
352              0          0          0          NO
505              0          0          0          NO
531              0          0          0          NO
534              0          0          0          NO
535              0          0          0          NO
536              0          0          0          NO
537              0          0          0          NO

[COORDINATES]
;;Node           X-Coord            Y-Coord
;;-------------- ------------------ ------------------
0                516.86             7071.19           
0                664.96             7480.02           
0                918.42             7961.42           
0                1198.42            8681.42           
0                1358.20            9313.72           
0                1473.21            10151.48          
0                1581.58            10741.34          
0                1649.79            11878.01          
0                805.02             12544.16          
0                374.18             6418.19           
0                1899.71            6599.22           
0                2249.42            6488.01           
0                2198.42            7075.42           
0                2198.42            7712.42           
0                2198.42            8459.42           
0                2198.42            9069.42           
0                2398.42            9429.42           
0                2558.42            9706.42           
0                2668.54            10143.78          
0                2597.14            10566.55          
0                2572.86            10838.66          
0                2578.42            11367.42          
0                2491.77            12021.45          
0                2471.77            12354.45          
0                2039.10            12624.32          
0                1546.11            12845.70          
0                1075.03            12839.57          
0                1013.40            6334.10           
0                3449.42            6202.56           
0                2723.92            6358.95           
0                2023.16            10022.30          
0                3583.72            8597.49           
0                3629.05            8965.80           
0                3445.28            9289.05           
0                3147.93            9669.29           
0                3418.42            12392.42          
0                1978.94            12017.20          
0                1644.10            11415.35          
0                1263.72            12189.06          
0                2729.93            7722.59           
0                1938.42            8459.42           
0                3532.42            8269.46           
0                3390.87            10253.17          
0                3058.42            12059.42          
0                1780.58            12306.60          
0                3528.11            8043.96           
0                3836.81            7723.84           
0                3830.40            7401.99           
0                3841.23            7094.56           
0                3848.63            6570.57           
0                489.47             6899.24           

[MAP]
DIMENSIONS 374.18 6202.56 3848.63 12845.70
Units      None

[REPORT]
INPUT            YES
SUBCATCHMENTS    ALL
NODES            ALL
LINKS            ALL



