;; SWMM5 .inp converted from XPSWMM .xp file
;; Generated by XPSWMM Card Reader
;; Source format: XP_CARD | Original title: (none)

[TITLE]
;;Project Title/Notes
Converted from XPSWMM .xp file

[OPTIONS]
FLOW_UNITS           CFS
INFILTRATION         HORTON
FLOW_ROUTING         DYNWAVE
LINK_OFFSETS         DEPTH
MIN_SLOPE            0.0
ALLOW_PONDING        NO
SKIP_STEADY_STATE    NO
INERTIAL_DAMPING     PARTIAL
NORMAL_FLOW_LIMITED  BOTH

[JUNCTIONS]
;;Name           Elev       MaxDepth   InitDepth  SurDepth   Aponded
;;-------------- ---------- ---------- ---------- ---------- ----------
5010             265.10     0          0          0          0
5020             256.10     0          0          0          0
5030             256.00     0          0          0          0
5040             253.20     0          0          0          0
5050             252.20     0          0          0          0
5060             261.00     0          0          0          0
5070             250.40     0          0          0          0
5080             251.10     0          0          0          0
5090             248.20     0          0          0          0
5100             247.30     0          0          0          0
5110             251.50     0          0          0          0
5120             246.90     0          0          0          0
5000             279.53     0          0          0          0
120              363.95     0          0          0          0
130              314.23     0          0          0          0
110              272.70     0          0          0          0
100              279.95     0          0          0          0
200              272.70     0          0          0          0
300              287.85     0          0          0          0
310              263.25     0          0          0          0
5130             241.50     0          0          0          0
5140             236.90     0          0          0          0
5150             234.80     0          0          0          0
5160             220.50     0          0          0          0
5180             203.30     0          0          0          0
5190             192.10     0          0          0          0
5200             167.10     0          0          0          0
5210             163.20     0          0          0          0
5220             159.80     0          0          0          0
5230             159.00     0          0          0          0
5234             155.00     0          0          0          0
5240             151.00     0          0          0          0
5250             142.50     0          0          0          0
5260             138.50     0          0          0          0
5270             130.50     0          0          0          0
5280             131.00     0          0          0          0
5290             122.50     0          0          0          0
5300             116.50     0          0          0          0
5310             115.50     0          0          0          0
5320             111.00     0          0          0          0
5330             107.00     0          0          0          0
1240             118.90     0          0          0          0
5350             76.00      0          0          0          0
5360             53.00      0          0          0          0
5370             39.40      0          0          0          0
5380             32.00      0          0          0          0
5390             29.00      0          0          0          0
5400             26.90      0          0          0          0
5410             23.00      0          0          0          0
5334             101.00     0          0          0          0
5340             82.00      0          0          0          0
5420             17.00      0          0          0          0
5430             15.00      0          0          0          0
5440             12.30      0          0          0          0
5450             10.30      0          0          0          0
5460             10.50      0          0          0          0
5470             3.03       0          0          0          0
5480             -0.47      0          0          0          0
5490             1.20       0          0          0          0
5500             -2.80      0          0          0          0
5510             -3.10      0          0          0          0
5520             -3.60      0          0          0          0
5530             -3.80      0          0          0          0
5540             -4.00      0          0          0          0
5550             -1.98      0          0          0          0
5560             -4.55      0          0          0          0
210              263.80     0          0          0          0
400              280.70     0          0          0          0
700              256.50     0          0          0          0
600              252.20     0          0          0          0
800              309.85     0          0          0          0
900              344.35     0          0          0          0
910              292.85     0          0          0          0
1000             206.00     0          0          0          0
1010             185.90     0          0          0          0
1020             178.50     0          0          0          0
1110             222.50     0          0          0          0
1130             208.40     0          0          0          0
1140             189.90     0          0          0          0
1150             172.00     0          0          0          0
1160             164.80     0          0          0          0
1120             227.05     0          0          0          0
1200             333.75     0          0          0          0
1210             309.75     0          0          0          0
1230             280.25     0          0          0          0
1220             289.50     0          0          0          0
1250             116.20     0          0          0          0
1300             75.75      0          0          0          0
1310             59.35      0          0          0          0
1320             53.60      0          0          0          0
1330             51.90      0          0          0          0
1340             51.10      0          0          0          0
1350             42.80      0          0          0          0
1400             30.20      0          0          0          0
1410             18.60      0          0          0          0
5474             1.10       0          0          0          0
1500             -3.03      0          0          0          0
1510             -7.40      0          0          0          0
5570             -4.62      0          0          0          0
5580             -5.13      0          0          0          0
5590             -5.64      0          0          0          0
5600             -5.20      0          0          0          0
5610             -5.64      0          0          0          0
5620             -6.80      0          0          0          0
5630             -7.65      0          0          0          0
5640             -12.30     0          0          0          0
1620             217.05     0          0          0          0
1630             209.65     0          0          0          0
1640             209.65     0          0          0          0
1610             218.45     0          0          0          0
1650             208.92     0          0          0          0
1720             173.56     0          0          0          0
1730             169.65     0          0          0          0
1740             169.36     0          0          0          0
1750             168.16     0          0          0          0
530              274.85     0          0          0          0
524              299.35     0          0          0          0
540              274.85     0          0          0          0
550              264.39     0          0          0          0
1820             10.81      0          0          0          0
1830             9.68       0          0          0          0
1840             3.56       0          0          0          0
1850             2.89       0          0          0          0
1860             0.89       0          0          0          0
1810             6.81       0          0          0          0
1800             13.81      0          0          0          0
520              303.35     0          0          0          0
1616             217.45     0          0          0          0
1108             240.00     0          0          0          0
1106             243.70     0          0          0          0
1102             296.00     0          0          0          0
1104             266.20     0          0          0          0
580              261.40     0          0          0          0
560              261.40     0          0          0          0
1404             23.32      0          0          0          0
1504             -21.43     0          0          0          0
1144             186.65     0          0          0          0
410              277.81     0          0          0          0
5104             251.41     0          0          0          0
304              286.38     0          0          0          0
1204             330.99     0          0          0          0
1900             8.50       0          0          0          0
1910             2.70       0          0          0          0
810              260.00     0          0          0          0
5354             68.03      0          0          0          0

[STORAGE]
;;Name           Elev       MaxDepth   InitDepth  Shape      Curve/Params
;;-------------- ---------- ---------- ---------- ---------- ----------
5170             205.50     14.50      0          FUNCTIONAL 90750.00 0          0
1710             170.85     26.82      0          FUNCTIONAL 7853.98 0          0
510              289.35     22.32      0          FUNCTIONAL 7853.98 0          0
570              255.16     6.24       0          FUNCTIONAL 788.40 0          0

[CONDUITS]
;;Name           From             To               Length     Roughness  InOffset   OutOffset  InitFlow   MaxFlow
;;-------------- ---------------- ---------------- ---------- ---------- ---------- ---------- ---------- ----------
5015             5010             5020             265.02     0.0140     262.60     252.10     0          0
5025             5020             5030             611.02     0.0140     252.10     250.00     0          0
5035             5030             5040             385.66     0.0140     250.00     247.20     0          0
5045             5040             5050             505.35     0.0140     247.20     246.20     0          0
5055             5050             5060             315.12     0.0140     246.20     245.60     0          0
5065             5060             5070             582.47     0.0140     245.60     244.40     0          0
5075             5070             5080             666.43     0.0140     244.40     243.10     0          0
5085             5080             5090             413.00     0.0140     243.10     242.20     0          0
5095             5090             5100             440.58     0.0140     242.20     241.30     0          0
5105             5100             5110             260.00     0.0140     241.30     240.60     0          0
5115             5110             5120             660.00     0.0350     245.50     242.40     0          0
5005             5000             5010             365.00     0.0140     267.20     262.60     0          0
105              100              110              800.00     0.0145     278.70     270.70     0          0
115              110              5000             683.90     0.0140     270.70     267.20     0          0
125              120              130              800.00     0.0144     362.70     313.40     0          0
135              130              5000             443.20     0.0140     313.40     278.70     0          0
305              300              310              515.50     0.0140     286.60     261.50     0          0
315              310              5030             416.00     0.0140     261.50     250.00     0          0
5125             5120             5130             550.00     0.0350     242.40     235.00     0          0
5135             5130             5140             500.00     0.0350     235.00     230.40     0          0
5145             5140             5150             200.00     0.0108     230.40     229.30     0          0
5155             5150             5160             520.00     0.0350     229.30     210.00     0          0
5165             5160             5170             120.00     0.0350     215.00     200.00     0          0
5175             5170             5180             300.00     0.0140     200.00     198.30     0          0
5185             5180             5190             700.00     0.0140     198.30     184.10     0          0
5195             5190             5200             200.00     0.0140     184.10     162.10     0          0
5205             5200             5210             389.00     0.0140     162.10     158.20     0          0
5215             5210             5220             200.00     0.0136     158.20     155.30     0          0
5225             5220             5230             200.00     0.0350     155.30     154.00     0          0
5233             5230             5234             250.00     0.0350     154.00     151.00     0          0
5235             5234             5240             540.00     0.0350     151.00     147.00     0          0
5245             5240             5250             700.00     0.0350     147.00     139.00     0          0
5255             5250             5260             650.00     0.0350     139.00     135.00     0          0
5265             5260             5270             440.00     0.0350     135.00     128.00     0          0
5275             5270             5280             500.00     0.0350     128.00     126.00     0          0
5285             5280             5290             800.00     0.0350     126.00     116.00     0          0
5295             5290             5300             550.00     0.0350     116.00     113.00     0          0
5305             5300             5310             500.00     0.0350     113.00     106.00     0          0
5315             5310             5320             300.00     0.0350     106.00     104.00     0          0
5325             5320             5330             300.00     0.0350     104.00     100.00     0          0
1237             5290             1240             327.70     0.0140     116.00     112.40     0          0
5355             5350             5360             750.00     0.0140     70.00      51.00      0          0
5365             5360             5370             600.00     0.0350     51.00      38.90      0          0
5375             5370             5380             420.00     0.0350     38.90      30.00      0          0
5385             5380             5390             280.00     0.0350     30.00      27.00      0          0
5395             5390             5400             380.00     0.0350     27.00      21.90      0          0
5405             5400             5410             350.00     0.0140     21.90      18.00      0          0
5333             5330             5334             200.00     0.0175     100.00     95.00      0          0
5335             5334             5340             600.00     0.0350     95.00      77.50      0          0
5345             5340             5350             520.00     0.0350     77.50      70.00      0          0
5415             5410             5420             650.00     0.0350     18.00      12.00      0          0
5425             5420             5430             350.00     0.0350     13.00      10.00      0          0
5435             5430             5440             320.00     0.0350     10.00      7.00       0          0
5445             5440             5450             250.00     0.0350     7.00       5.00       0          0
5455             5450             5460             200.00     0.0120     5.00       4.50       0          0
5465             5460             5470             380.00     0.0350     4.50       -2.97      0          0
5485             5480             5490             455.90     0.0140     -5.47      -6.80      0          0
5495             5490             5500             726.00     0.0140     -6.80      -10.80     0          0
5505             5500             5510             200.00     0.0122     -10.80     -11.10     0          0
5515             5510             5520             546.36     0.0140     -11.10     -11.60     0          0
5525             5520             5530             200.00     0.0140     -11.60     -11.80     0          0
5535             5530             5540             200.00     0.0140     -11.80     -12.00     0          0
5545             5470             5550             440.00     0.0140     -2.90      -5.47      0          0
5555             5550             5560             440.00     0.0140     -5.47      -8.05      0          0
205              200              210              678.79     0.0140     270.70     260.80     0          0
215              210              5020             3313.32    0.0140     260.80     252.10     0          0
405              400              5050             556.00     0.0140     278.30     246.20     0          0
705              700              5080             200.00     0.0117     248.50     243.10     0          0
605              600              5070             363.50     0.0140     249.20     244.40     0          0
805              800              5100             792.85     0.0140     308.10     241.30     0          0
905              900              910              430.75     0.0140     343.10     291.60     0          0
915              910              5130             581.13     0.0140     291.60     235.00     0          0
1005             1000             1010             480.00     0.0140     202.00     181.90     0          0
1015             1010             1020             380.00     0.0140     181.90     175.00     0          0
1025             1020             5220             330.00     0.0350     175.00     155.30     0          0
1115             1110             1130             367.40     0.0140     220.00     205.40     0          0
1135             1130             1140             458.90     0.0140     205.40     186.90     0          0
1145             1140             1150             250.00     0.0140     186.90     171.90     0          0
1155             1150             1160             222.00     0.0140     169.00     161.80     0          0
1165             1160             5220             320.00     0.0140     161.80     155.30     0          0
1125             1120             1130             458.60     0.0140     224.80     205.40     0          0
1205             1200             1210             680.00     0.0140     332.50     308.00     0          0
1215             1210             1230             650.00     0.0140     308.00     277.50     0          0
1235             1230             1240             800.00     0.0140     277.50     107.40     0          0
1225             1220             1230             220.00     0.0140     287.00     277.50     0          0
1245             1240             1250             603.00     0.0140     107.40     106.20     0          0
1255             1250             5310             200.00     0.0140     106.20     105.50     0          0
1305             1300             1310             560.00     0.0140     74.00      57.60      0          0
1313             1310             5370             535.00     0.0140     57.60      38.90      0          0
1315             1310             1320             670.00     0.0140     57.60      51.60      0          0
1325             1320             1330             700.00     0.0140     51.60      49.90      0          0
1335             1330             1340             280.00     0.0140     49.90      49.10      0          0
1345             1340             1350             647.10     0.0140     49.10      40.80      0          0
1405             1400             1410             290.50     0.0140     28.20      16.60      0          0
1355             1350             1410             660.00     0.0140     40.80      16.60      0          0
5473             5470             5474             215.00     0.0140     -2.97      -3.90      0          0
5475             5474             5480             626.80     0.0140     -3.90      -5.47      0          0
1415             1410             5474             223.00     0.0140     16.60      -3.90      0          0
1505             1500             1510             220.00     0.0132     -5.03      -10.40     0          0
1515             1510             5520             446.90     0.0140     -10.40     -11.60     0          0
5565             5560             5570             400.00     0.0140     -8.05      -8.62      0          0
5575             5570             5580             400.00     0.0140     -8.62      -11.13     0          0
5585             5580             5590             700.00     0.0140     -11.30     -11.64     0          0
5595             5590             5600             765.00     0.0140     -11.64     -12.20     0          0
5605             5600             5610             800.00     0.0240     -12.20     -12.64     0          0
5615             5610             5620             800.00     0.0240     -12.64     -13.80     0          0
5625             5620             5630             625.00     0.0240     -13.80     -14.65     0          0
5635             5630             5640             700.00     0.0140     -14.65     -19.30     0          0
1623             1620             1630             200.00     0.0140     209.05     208.65     0          0
1613             1610             1630             200.00     0.0140     211.45     208.65     0          0
1645             1640             1650             200.00     0.0140     208.65     208.25     0          0
1723             1720             1710             200.00     0.0140     172.35     169.35     0          0
1715             1710             1730             200.00     0.0140     169.35     168.15     0          0
1725             1720             1730             200.00     0.0140     172.35     168.15     0          0
1745             1740             1750             200.00     0.0140     168.15     166.95     0          0
515              510              530              200.00     0.0140     283.35     273.35     0          0
527              524              510              200.00     0.0140     293.35     283.35     0          0
525              524              530              200.00     0.0140     293.35     273.35     0          0
545              540              550              200.00     0.0140     273.35     263.35     0          0
1835             1830             1840             200.00     0.0140     2.68       2.06       0          0
1855             1850             1860             200.00     0.0140     2.06       0.06       0          0
1815             1810             1820             200.00     0.0140     5.81       3.81       0          0
1805             1800             1810             200.00     0.0140     7.81       5.81       0          0
523              520              524              200.00     0.0140     303.35     293.35     0          0
1827             1820             1830             200.00     0.0140     3.81       2.68       0          0
1813             1810             1840             200.00     0.0140     5.81       2.06       0          0
1615             1610             1616             200.00     0.0140     211.45     209.05     0          0
1617             1616             1620             530.00     0.0140     209.45     209.05     0          0
1109             1108             1110             666.00     0.0140     238.00     220.00     0          0
1107             1106             1108             321.00     0.0140     241.70     238.00     0          0
1103             1102             1104             665.00     0.0140     294.50     265.70     0          0
1105             1104             1106             341.00     0.0140     265.70     241.70     0          0
585              580              5060             200.00     0.0077     248.49     245.60     0          0
577              570              5060             200.00     0.0140     255.16     245.60     0          0
565              560              570              200.00     0.0091     249.36     248.49     0          0
1403             1400             1404             280.00     0.0140     28.20      22.32      0          0
1503             1500             1504             200.00     0.0140     -5.03      -22.43     0          0
1143             1140             1144             350.00     0.0140     186.90     185.15     0          0
407              400              410              270.00     0.0140     278.20     276.31     0          0
5103             5100             5104             330.00     0.0140     251.30     248.66     0          0
303              300              304              330.00     0.0140     286.60     283.63     0          0
1203             1200             1204             335.00     0.0140     332.50     329.49     0          0
1905             1900             1910             650.00     0.0140     2.50       -4.70      0          0
1915             1910             5500             600.00     0.0140     -4.70      -10.80     0          0
815              810              5100             200.00     0.0140     257.80     241.00     0          0
5353             5350             5354             330.00     0.0140     70.00      67.03      0          0

[ORIFICES]
;;Name           From             To               Type       Offset     Qcoeff     Gated    CloseTime
;;-------------- ---------------- ---------------- ---------- ---------- ---------- -------- ----------
575              570              580              SIDE       248.49     0.650      NO       0

[WEIRS]
;;Name           From             To               Type       CrestHt    Qcoeff     Gated    EndCon   EndCoeff   Surcharge
;;-------------- ---------------- ---------------- ---------- ---------- ---------- -------- -------- ---------- ----------
505a             510              5060             TRANSVERSE 310.34     1.840      NO       0        0          YES
1825             1820             5474             TRANSVERSE 11.32      1.840      NO       0        0          YES
1625             1620             5180             TRANSVERSE 213.00     1.840      NO       0        0          YES
1705             1710             1140             TRANSVERSE 196.34     1.840      NO       0        0          YES

[PUMPS]
;;Name           From             To               PumpCurve  Status   Startup    Shutoff
;;-------------- ---------------- ---------------- ---------- -------- ---------- ----------
1635             1630             1640             *          ON       0          0         
1735             1730             1740             *          ON       0          0         
535              530              540              *          ON       0          0         
1845             1840             1850             *          ON       0          0         

[XSECTIONS]
;;Link           Shape        Geom1      Geom2      Geom3      Geom4      Barrels
;;-------------- ------------ ---------- ---------- ---------- ---------- ----------
5015             CIRCULAR     2.00       0          0          0          1
5025             CIRCULAR     4.00       0          0          0          1
5035             CIRCULAR     6.00       0          0          0          1
5045             CIRCULAR     6.00       0          0          0          1
5055             CIRCULAR     6.00       0          0          0          1
5065             CIRCULAR     6.00       0          0          0          1
5075             CIRCULAR     6.00       0          0          0          1
5085             CIRCULAR     6.00       0          0          0          1
5095             CIRCULAR     6.00       0          0          0          1
5105             CIRCULAR     6.00       0          0          0          1
5115             TRAPEZOIDAL  4.50       5.00       0          0          1
5005             CIRCULAR     2.50       0          0          0          1
105              CIRCULAR     1.25       0          0          0          1
115              CIRCULAR     2.00       0          0          0          1
125              CIRCULAR     1.25       0          0          0          1
135              CIRCULAR     0.83       0          0          0          1
305              CIRCULAR     1.25       0          0          0          1
315              CIRCULAR     1.75       0          0          0          1
5125             TRAPEZOIDAL  3.00       4.00       0          0          1
5135             TRAPEZOIDAL  6.50       5.50       0          0          1
5145             CIRCULAR     3.00       0          0          0          1
5155             TRAPEZOIDAL  5.50       5.50       0          0          1
5165             TRAPEZOIDAL  5.50       5.50       0          0          1
5175             CIRCULAR     2.00       0          0          0          1
5185             CIRCULAR     5.00       0          0          0          1
5195             CIRCULAR     5.00       0          0          0          1