;; SWMM5 .inp converted from XPSWMM .xp file
;; Generated by XPSWMM Card Reader
;; Source format: XP_CARD | Original title: (none)

[TITLE]
;;Project Title/Notes
Converted from XPSWMM .xp file

[OPTIONS]
FLOW_UNITS           CMS
INFILTRATION         HORTON
FLOW_ROUTING         DYNWAVE
LINK_OFFSETS         DEPTH
MIN_SLOPE            0.0
ALLOW_PONDING        NO
SKIP_STEADY_STATE    NO
INERTIAL_DAMPING     PARTIAL
NORMAL_FLOW_LIMITED  BOTH

[JUNCTIONS]
;;Name           Elev       MaxDepth   InitDepth  SurDepth   Aponded
;;-------------- ---------- ---------- ---------- ---------- ----------
ndBF8            950.00     0          0          0          0
ndBF9            950.00     0          0          0          0
ndBF18           950.00     0          0          0          0
ndBF22           950.00     0          0          0          0
ndBF29           950.00     0          0          0          0
ndBF30           942.00     0          0          0          0
ndBF33           955.00     0          0          0          0
ndBF42           950.00     0          0          0          0
ndBF45           950.00     0          0          0          0
ndBF14           950.00     0          0          0          0
ndBF19           950.00     0          0          0          0
ndBF46           950.00     0          0          0          0
ndW143           950.00     0          0          0          0
ndW152           950.00     0          0          0          0
ndW179           950.00     0          0          0          0
ndW211           960.00     0          0          0          0
ndW217           955.00     0          0          0          0
ndW242           960.00     0          0          0          0
ndW254           960.00     0          0          0          0
ndW280           972.20     0          0          0          0
ndW291           984.00     0          0          0          0
ndW338           1000.00    0          0          0          0
ndW339           1000.00    0          0          0          0
ndW412           1050.00    0          0          0          0
ndW140           960.00     0          0          0          0
ndW149           951.00     0          0          0          0
ndW252           960.00     0          0          0          0
ndW281           972.00     0          0          0          0
ndW297           990.00     0          0          0          0
ndW396           1050.00    0          0          0          0
ndW0             950.00     0          0          0          0
140              1000.00    0          0          0          0
149              990.00     0          0          0          0
151              990.00     0          0          0          0
157              952.00     0          0          0          0
160              950.00     0          0          0          0
165              975.00     0          0          0          0
172              963.00     0          0          0          0
174              960.00     0          0          0          0
177              963.00     0          0          0          0
179              961.00     0          0          0          0
ndNW6            960.00     0          0          0          0
ndNW8            950.00     0          0          0          0
ndNW17           960.00     0          0          0          0
33               955.00     0          0          0          0
ndNW3            960.00     0          0          0          0
ndNW12           951.00     0          0          0          0
ndNW13           951.00     0          0          0          0
ndNW18           955.00     0          0          0          0
Nd_FL8           950.00     0          0          0          0
Nd_FL11          960.00     0          0          0          0
Nd_FL3           950.00     0          0          0          0
Nd_FL9           950.00     0          0          0          0
N20              950.00     0          0          0          0
N24              950.00     0          0          0          0
N29              945.00     0          0          0          0
N26              950.00     0          0          0          0
N27              945.00     0          0          0          0
N28              945.00     0          0          0          0
154              945.00     0          0          0          0
156              945.00     0          0          0          0
274              930.00     0          0          0          0
276              930.00     0          0          0          0
ndE7             0          0          0          0          0
ndE8             0          0          0          0          0
ndE9             0          0          0          0          0
ndE10            0          0          0          0          0
ndE11            0          0          0          0          0
ndE12            0          0          0          0          0
ndE13            0          0          0          0          0
ndE14            0          0          0          0          0
ndE15            0          0          0          0          0
ndE16            0          0          0          0          0
ndE17            0          0          0          0          0
ndE19            0          0          0          0          0
ndE20            0          0          0          0          0
ndE22            0          0          0          0          0
ndE23            0          0          0          0          0
ndE43            0          0          0          0          0
ndE58            0          0          0          0          0
ndE60            0          0          0          0          0
ndE67            0          0          0          0          0
ndBU18           0          0          0          0          0
ndBU40           0          0          0          0          0
ndBU45           0          0          0          0          0
ndBU69           0          0          0          0          0
ndBU83           0          0          0          0          0
ndBU98           0          0          0          0          0
ndBU102          0          0          0          0          0
ndBU109          0          0          0          0          0
ndBU114          0          0          0          0          0
ndBU120          0          0          0          0          0
ndBU125          0          0          0          0          0
ndBU133          0          0          0          0          0
ndBU307          0          0          0          0          0
ndBU313          0          0          0          0          0
ndBU41           0          0          0          0          0
ndBU43           0          0          0          0          0
ndBU57           0          0          0          0          0
ndBU65           0          0          0          0          0
ndBU66           0          0          0          0          0
ndBU72           0          0          0          0          0
ndBU73           0          0          0          0          0
ndBU75           0          0          0          0          0
ndBU77           0          0          0          0          0
ndBU78           0          0          0          0          0
ndBU79           0          0          0          0          0
ndBU80           0          0          0          0          0
ndBU82           0          0          0          0          0
ndBU84           0          0          0          0          0
ndBU92           0          0          0          0          0
ndBU96           0          0          0          0          0
ndBU97           0          0          0          0          0
ndBU117          0          0          0          0          0
ndBU310          0          0          0          0          0
ndBU311          0          0          0          0          0
ndBU315          0          0          0          0          0
ndBU319          0          0          0          0          0
ndBU325          0          0          0          0          0
ndS3             0          0          0          0          0
ndS7             0          0          0          0          0
ndS13            0          0          0          0          0
ndS15            0          0          0          0          0
ndS19            0          0          0          0          0
ndS2             0          0          0          0          0
ndS6             0          0          0          0          0
ndS16            0          0          0          0          0
ndS29            0          0          0          0          0
ndS30            0          0          0          0          0
ndS116           0          0          0          0          0
463              0          0          0          0          0
499              955.00     0          0          0          0
504              950.00     0          0          0          0
615              1000.00    0          0          0          0
665              1000.00    0          0          0          0
667              1000.00    0          0          0          0
670              995.00     0          0          0          0
671              995.00     0          0          0          0
681              960.00     0          0          0          0
687              0          0          0          0          0
693              955.00     0          0          0          0
704              0          0          0          0          0
711              950.00     0          0          0          0
714              950.00     0          0          0          0
723              955.00     0          0          0          0
727              0          0          0          0          0
742              950.00     0          0          0          0
743              950.00     0          0          0          0
745              950.00     0          0          0          0
749              950.00     0          0          0          0
768              997.00     0          0          0          0
769              973.30     0          0          0          0
770              962.30     0          0          0          0
771              952.80     0          0          0          0
788              950.00     0          0          0          0
801              950.00     0          0          0          0
805              950.00     0          0          0          0
812              950.00     0          0          0          0
813              950.00     0          0          0          0
814              950.00     0          0          0          0
815              950.00     0          0          0          0
828              950.00     0          0          0          0
831              0          0          0          0          0
834              0          0          0          0          0
WMARKET          945.00     0          0          0          0
EMARKET          950.00     0          0          0          0
MONROEST         955.00     0          0          0          0
851              950.00     0          0          0          0

[STORAGE]
;;Name           Elev       MaxDepth   InitDepth  Shape      Curve/Params
;;-------------- ---------- ---------- ---------- ---------- ----------
ndW156           960.00     -5.00      0          FUNCTIONAL 0 0          0
ndW327           975.20     -0.20      0          FUNCTIONAL 17700.00 0          0
ndW328           1000.00    -25.00     0          FUNCTIONAL 0 0          0
ndW374           1020.00    -20.00     0          FUNCTIONAL 0 0          0
ndW326           972.00     0          0          FUNCTIONAL 15000.00 0          0
ndNW1            955.00     0          0          FUNCTIONAL 0 0          0
ndNW11           950.00     0          0          FUNCTIONAL 0 0          0
ndNW14           950.00     -10.00     0          FUNCTIONAL 0 0          0
Nd_FL1           950.00     -7.00      0          FUNCTIONAL 0 0          0
Nd_FL2           955.00     0          0          FUNCTIONAL 0 0          0
669              997.00     0          0          FUNCTIONAL 0 0          0

[CONDUITS]
;;Name           From             To               Length     Roughness  InOffset   OutOffset  InitFlow   MaxFlow
;;-------------- ---------------- ---------------- ---------- ---------- ---------- ---------- ---------- ----------
69               ndBF30           ndBF46           195.00     0.0300     924.39     924.00     0          0
86               ndBF8            ndBF9            409.00     0.0400     932.18     929.95     0          0
89p              89str            ndBF19           307.00     0.0140     933.60     929.00     0          0
BO_culv          BO_ovflow        ndW143           65.00      0.0140     931.41     931.81     0          0
pipeW241         ovflW241         ndW280           86.00      0.0140     963.92     963.66     0          0
W337p            W337str          ndW396           718.00     0.0140     998.22     991.28     0          0
139p             139ch            ndW374           235.00     0.0140     991.28     989.87     0          0
150              ndW297           149              450.00     0.0300     972.00     968.20     0          0
Westculv         Eastculv         ovflow           96.00      0.0140     968.20     966.50     0          0
153              151              ndW156           1250.00    0.0300     966.50     942.00     0          0
159p             159over          159free          49.00      0.0140     935.70     935.40     0          0
161box           161road          160              60.00      0.0200     935.40     935.20     0          0
162_exist        162_pndout       ndW0             450.00     0.0500     935.20     934.40     0          0
167              165              ndW281           500.00     0.0400     966.09     963.92     0          0
168              ndW326           ndW281           950.00     0.0400     968.00     963.92     0          0
169              ndW327           ndW326           140.00     0.0140     968.10     968.00     0          0
170p             170str           ndW211           420.00     0.0140     947.00     942.63     0          0
173              ndW280           172              300.00     0.0400     963.66     957.40     0          0
176              174              ndW242           800.00     0.0400     955.00     947.00     0          0
180              177              179              200.00     0.0400     957.20     955.20     0          0
162p             162str           ndW143           470.00     0.0140     936.00     933.00     0          0
19               ndNW13           ndNW14           700.00     0.0800     937.13     936.00     0          0
20c              20str            ndNW13           60.00      0.0140     937.20     937.13     0          0
21               ndNW11           ndNW12           300.00     0.4000     937.50     937.20     0          0
lkNW23           ndNW17           ndNW8            745.00     0.0400     946.00     938.40     0          0
431.1            ndNW1            ndNW18           180.00     0.1000     943.00     949.60     0          0
31p              31str            ndNW6            275.00     0.0140     940.35     939.80     0          0
32               ndNW6            ndNW8            587.00     0.0400     939.60     938.40     0          0
34               ndNW18           33               285.00     0.0140     949.60     948.00     0          0
35               33               ndNW3            620.00     0.0140     948.00     944.00     0          0
16p              16ch             Nd_FL9           246.13     0.0140     933.79     933.51     0          0
exist18rr        future24r        Nd_FL1           83.50      0.0140     937.77     937.01     0          0
253p             253ch            Nd_FL3           259.00     0.0140     936.53     936.05     0          0
lkN21pipe        lkN21str         lkN21prop        284.00     0.0140     928.49     927.62     0          0
lkN25p           lkN26ch          lkN25prop        416.00     0.0230     927.23     927.04     0          0
lkN27p           lkN27ch          lkN27prop        147.00     0.0140     927.04     926.84     0          0
lkN32p           lkN32st          lkN32prop        185.00     0.0140     927.62     926.95     0          0
155p             155ch            155prop          232.00     0.0140     926.95     927.14     0          0
lkN157p          lkN157ch         156              214.00     0.0140     927.42     927.29     0          0
272p             272ch            N27              110.00     0.0140     927.29     927.23     0          0
273p             273ch            ndBF22           949.00     0.0140     926.84     926.45     0          0
275              ndBF42           274              200.00     0.0140     921.50     921.10     0          0
277              274              276              500.00     0.0400     921.10     920.10     0          0
E28p             E28str           ndE19            112.00     0.0140     938.22     938.09     0          0
lkE29            ndE19            ndE17            710.00     0.0140     938.09     937.83     0          0
E32p             E32str           ndE15            90.00      0.0140     936.79     936.55     0          0
lkE33            ndE15            ndE14            975.00     0.0300     936.55     934.10     0          0
lkE35            ndE13            ndE11            350.00     0.0400     933.50     932.00     0          0
lkE37            ndE12            ndE10            165.00     0.0400     930.40     930.35     0          0
lkE39            ndE9             ndE8             1430.00    0.0800     930.10     926.55     0          0
e40p             e40str           ndE7             86.00      0.0140     926.55     926.20     0          0
lkE59            ndE58            ndE43            221.00     0.0140     939.89     938.88     0          0
e61p             e61str           ndE7             225.00     0.0140     927.92     927.00     0          0
North            South            Overflow         82.00      0.0220     930.35     930.10     0          0
Perry1c          Perry2c          PerryStr         75.00      0.0220     934.10     933.50     0          0
lkE68            ndE23            ndE67            750.00     0.1000     942.00     938.74     0          0
HS1              HS2              ndE12            410.00     0.0140     932.00     929.50     0          0
RichW            RichE            RichOver         80.00      0.0140     942.24     942.00     0          0
bu567p           bu567ch          ndBU65           205.00     0.0140     963.04     956.68     0          0
bu576p           bu576ch          ndBU66           205.00     0.0140     972.26     971.85     0          0
bu563p           bu563st          ndBU73           285.00     0.0140     971.44     970.67     0          0
bu575p           bu575ch          ndBU77           27.00      0.0140     967.05     963.04     0          0
bu372p           bu372str         ndBU92           470.00     0.0140     944.19     940.62     0          0
bu292p           bu292st          ndBU78           330.00     0.0140     970.67     970.17     0          0
bu291p           bu291st          ndBU80           300.00     0.0140     970.17     969.65     0          0
bu290p           bu290st          ndBU75           253.00     0.0140     969.65     968.10     0          0
bu570p           bu570st          ndBU77           303.00     0.0140     968.10     963.04     0          0
bu269p           bu269st          ndBU57           227.00     0.0100     964.87     964.50     0          0
bu280p           bu280st          ndBU75           317.00     0.0140     970.64     968.10     0          0
lkBU293          ndBU117          ndBU114          515.00     0.0500     1013.43    996.00     0          0
bu295p           bu295ch          ndBU83           1385.00    0.0140     993.00     985.00     0          0
lkBU299          ndBU120          ndBU98           1900.00    0.0500     961.00     935.00     0          0
lkBU306          ndBU45           ndBU84           400.00     0.0400     937.86     935.50     0          0
lkBU305          ndBU84           ndBU98           215.00     0.0400     935.50     935.00     0          0
lkBU103          ndBU307          ndBU96           100.00     0.0140     931.66     931.56     0          0
Janes1           Janes2           ndBU311          165.00     0.0140     930.64     929.93     0          0
lkBU301          ndBU311          ndBU313          700.00     0.0400     929.93     926.92     0          0
lkBU300          ndBU313          ndBU315          700.00     0.0400     926.92     923.91     0          0
lkBU318          ndBU18           ndBU315          650.00     0.0500     924.96     923.91     0          0
Box1             Box2             ndBU319          54.00      0.0140     931.56     931.33     0          0
lkBU101          ndBU319          ndBU310          160.00     0.0400     931.33     930.64     0          0
lkBU104          ndBU325          ndBU96           378.00     0.0500     933.19     931.56     0          0
bu330p           bu330st          ndBU69           205.00     0.0140     971.85     971.44     0          0
CntyMM1          CntyMM2          ndBU97           70.00      0.0140     934.86     934.17     0          0
lkBU200          ndBU315          ndBF42           560.00     0.0400     923.91     921.50     0          0
s1p              s1ch             ndS6             250.00     0.0140     998.00     987.00     0          0
lkS109           ndS29            ndS30            350.00     0.0140     968.75     967.66     0          0
lkS113           ndS19            ndS16            165.00     0.0140     979.17     978.28     0          0
lkS115           ndS16            ndS15            335.00     0.0500     978.28     976.00     0          0
lkS117           ndS6             ndS116           700.00     0.0500     986.00     964.52     0          0
lkS118           ndS116           ndS2             450.00     0.0500     964.50     956.20     0          0
lkS119           ndS30            ndS116           314.00     0.0400     967.66     964.52     0          0
MS42inchN        MS42inchS        MS18inchN        70.00      0.0140     956.20     955.95     0          0
lkS123           ndS13            ndS29            119.00     0.0140     978.13     975.75     0          0
lkS120           ndS3             ndBU84           1495.00    0.0350     955.95     935.50     0          0
464              ndS15            463              0          0          0          0          0          0
lkS122           463              ndS29            234.00     0.0140     972.50     968.75     0          0
W154p            W154str          ndW252           208.00     0.0140     944.89     942.63     0          0
lkW123           ndW152           ndW0             197.00     0.0140     935.00     934.40     0          0
57p              57ch             ndBF8            375.00     0.0140     939.20     934.00     0          0
53               ndBF45           ndBF8            49.00      0.0140     932.20     932.18     0          0
bu308p           bu308ch          ndBU84           335.00     0.0140     940.52     935.50     0          0
bu540p           bu540ch          ndBU41           213.00     0.0100     965.28     964.87     0          0
bu556p           bu556st          ndBU77           283.00     0.0100     964.39     963.04     0          0
bu270p           bu270st          ndBU82           229.00     0.0140     969.00     967.88     0          0
bu453p           bu453ch          ndBU125          200.00     0.0140     1019.45    1015.04    0          0
bu266p           bu266ch          ndBU79           280.00     0.0140     956.68     948.58     0          0
bu268p           bu268st          ndBU45           337.00     0.0140     948.58     938.23     0          0
Pipe             Spillway         177              30.00      0.0240     957.40     957.20     0          0
Pipe2            Spillway2        174              30.00      0.0240     955.20     955.00     0          0
500              499              ndNW1            300.00     0.0400     950.00     948.00     0          0
22               ndNW8            ndNW11           300.00     0          938.40     937.00     0          0
508p             508str           ndW297           528.00     0.0140     973.82     972.09     0          0
510p             510str           ndW338           459.00     0.0140     980.58     978.23     0          0
511              ndW338           ndW297           700.00     0          977.18     972.00     0          0
512p             512str           ndW156           242.00     0.0140     942.57     942.03     0          0
513p             513ch            ndW152           775.00     0.0140     940.80     935.00     0          0
515              ndNW14           Nd_FL11          700.00     0.0140     936.00     932.30     0          0
516p             516str           Nd_FL8           569.00     0.0140     935.21     933.79     0          0
183p             183str           ndW140           830.00     0.0140     942.63     933.50     0          0
519p             519ch            ndBU117          583.00     0.0140     1015.04    1013.43    0          0
bu333p           bu333ch          ndBU43           275.00     0.0100     966.02     965.28     0          0
549              ndE67            ndE20            365.00     0.1000     938.74     938.22     0          0
571              ndE17            ndE16            275.00     0          937.83     936.79     0          0
572              ndE43            ndE17            265.00     0.0140     938.88     937.83     0          0
585              ndBU97           ndBU325          441.00     0.0500     934.17     933.19     0          0
601p             601ch            ndW338           484.00     0.0140     983.50     977.41     0          0
607tp            607tstr          607tconcp        561.00     0.0250     929.08     926.15     0          0
614p             614str           ndBF14           590.00     0.0140     932.85     929.90     0          0
616              615              ndW327           700.00     0          980.00     968.10     0          0
668              667              ndW0             1000.00    0.0140     934.70     934.40     0          0
673              669              670              380.00     0.0140     987.95     987.45     0          0
674              670              671              228.00     0.0140     987.43     986.97     0          0
675              671              ndW374           740.00     0.0140     986.70     985.22     0          0
Ash_diver        ndW152           ndW156           175.00     0.0140     937.70     937.00     0          0
677              504              ndW156           1550.00    0.0140     942.40     938.30     0          0
682_exist        outlet1          overflow1        100.00     0.0400     932.30     932.20     0          0
252              681              ndW140           210.00     0.0400     932.20     931.41     0          0
688_exist        688_pndin        687              700.00     0.0300     933.21     933.10     0          0
689_exist        689_outlet       Nd_FL11          700.00     0.0300     933.10     932.30     0          0
695              693              Nd_FL11          210.00     0.0140     933.19     932.30     0          0
705              ndE7             704              200.00     0.0180     926.20     925.83     0          0
lkE41            704              ndBF46           1005.00    0.0180     925.83     924.00     0          0
707p             N29              704              550.00     0.0140     926.84     925.90     0          0
712              ndBF46           711              835.00     0.0300     924.00     923.20     0          0
713              711              ndBF42           1765.00    0.0300     923.20     921.50     0          0
715              ndW143           714              310.00     0.0140     931.81     931.10     0          0
716              714              ndBF45           550.00     0.0140     931.10     932.20     0          0
724              ndW0             723              625.00     0.0140     934.40     933.12     0          0
725p1            725p2            725over          100.00     0.0083     933.12     933.29     0          0
728              665              727              500.00     0.0140     936.89     935.40     0          0
newpdout         727              160              150.00     0.0140     935.40     935.20     0          0
732              504              727              300.00     0.0140     938.00     935.40     0          0
746              504              742              150.00     0.0140     942.40     942.00     0          0
747              742              743              500.00     0.0140     942.00     940.30     0          0
748              743              745              650.00     0.0140     940.30     938.80     0          0
751              745              749              250.00     0.0140     938.80     938.30     0          0
752              749              ndW149           40.00      0.0140     938.30     935.40     0          0
773              665              768              100.00     0.0140     943.00     942.60     0          0
774              768              769              750.00     0.0140     942.60     939.70     0          0
775              769              770              350.00     0.0140     939.70     938.30     0          0
776              770              771              300.00     0.0140     938.30     937.30     0          0