;; SWMM5 .inp converted from XPSWMM .xp file
;; Generated by XPSWMM Card Reader
;; Source format: XP_CARD | Original title: CAiCE Visual Hydro US Unit Default Database

[TITLE]
;;Project Title/Notes
CAiCE Visual Hydro US Unit Default Database

[OPTIONS]
FLOW_UNITS           CFS
INFILTRATION         HORTON
FLOW_ROUTING         DYNWAVE
LINK_OFFSETS         DEPTH
MIN_SLOPE            0.0
ALLOW_PONDING        NO
SKIP_STEADY_STATE    NO
ROUTING_STEP         00:00:180
VARIABLE_STEP        0.75
INERTIAL_DAMPING     PARTIAL
NORMAL_FLOW_LIMITED  BOTH
HEAD_TOLERANCE       0.0033

[JUNCTIONS]
;;Name           Elev       MaxDepth   InitDepth  SurDepth   Aponded
;;-------------- ---------- ---------- ---------- ---------- ----------
N160             40.90      0          0          0          0
N158             39.43      0          0          0          0
N157             39.55      0          0          0          0
N162             39.14      0          0          0          0
N156             39.11      0          0          0          0
N084             38.92      0          0          0          0
N159             40.00      0          0          0          0
N083             38.44      0          0          0          0
N081             38.01      0          0          0          0
N082             37.68      0          0          0          0
N080             39.69      0          0          0          0
N079             38.32      0          0          0          0
N078             37.90      0          0          0          0
N077             38.29      0          0          0          0
N076             38.75      0          0          0          0
N075             39.98      0          0          0          0
N074             39.99      0          0          0          0
N004             41.94      0          0          0          0
N086             40.38      0          0          0          0
N085             39.48      0          0          0          0
N056             39.12      0          0          0          0
N057             38.77      0          0          0          0
N058             38.50      0          0          0          0
N059             38.50      0          0          0          0
N060             38.50      0          0          0          0
N061             38.50      0          0          0          0
N062             38.50      0          0          0          0
N003             40.34      0          0          0          0
N143             39.77      0          0          0          0
N144             39.36      0          0          0          0
N073             38.50      0          0          0          0
N072             38.50      0          0          0          0
N070             38.50      0          0          0          0
N069             38.50      0          0          0          0
N063             38.18      0          0          0          0
N068             38.50      0          0          0          0
N067             38.50      0          0          0          0
N066             38.50      0          0          0          0
N002             37.82      0          0          0          0
N001             37.78      0          0          0          0
N141             38.92      0          0          0          0
N140             39.65      0          0          0          0
N139             39.47      0          0          0          0
N136             41.28      0          0          0          0
N137             41.02      0          0          0          0
N138             41.51      0          0          0          0
N134             41.69      0          0          0          0
N135             42.34      0          0          0          0
N133             41.90      0          0          0          0
N132             39.96      0          0          0          0
N130             42.27      0          0          0          0
N131             42.48      0          0          0          0
N126             41.84      0          0          0          0
N127             41.45      0          0          0          0
N005             40.29      0          0          0          0
N016             39.89      0          0          0          0
N017             39.99      0          0          0          0
N018             39.73      0          0          0          0
N019             39.49      0          0          0          0
N020             40.11      0          0          0          0
N021             40.65      0          0          0          0
N022             40.10      0          0          0          0
N023             35.82      0          0          0          0
N024             34.42      0          0          0          0
N006             38.70      0          0          0          0
N007             37.02      0          0          0          0
N008             39.40      0          0          0          0
N125             42.04      0          0          0          0
N124             40.97      0          0          0          0
N128             42.32      0          0          0          0
N123             40.64      0          0          0          0
N120             42.15      0          0          0          0
N121             41.56      0          0          0          0
N122             41.34      0          0          0          0
N116             40.54      0          0          0          0
N117             41.72      0          0          0          0
N118             40.84      0          0          0          0
N119             41.47      0          0          0          0
N154             41.36      0          0          0          0
N106             41.69      0          0          0          0
N107             41.28      0          0          0          0
N113             41.30      0          0          0          0
N114             40.24      0          0          0          0
N115             38.62      0          0          0          0
N108             40.49      0          0          0          0
N109             41.51      0          0          0          0
N110             38.44      0          0          0          0
N111             37.79      0          0          0          0
N112             36.38      0          0          0          0
N087             42.05      0          0          0          0
N088             43.12      0          0          0          0
N089             41.19      0          0          0          0
N090             40.68      0          0          0          0
N091             39.30      0          0          0          0
N092             40.09      0          0          0          0
N099             40.47      0          0          0          0
N093             38.82      0          0          0          0
N094             38.63      0          0          0          0
N095             39.06      0          0          0          0
N096             39.22      0          0          0          0
N098             40.00      0          0          0          0
N100             39.99      0          0          0          0
N097             40.19      0          0          0          0
N101             40.26      0          0          0          0
N102             41.13      0          0          0          0
N103             40.66      0          0          0          0
N104             40.46      0          0          0          0
N105             39.87      0          0          0          0
N145             39.67      0          0          0          0
N146             39.57      0          0          0          0
N147             39.83      0          0          0          0
N148             38.27      0          0          0          0
N025             33.85      0          0          0          0
N026             32.57      0          0          0          0
N149             38.22      0          0          0          0
N009             35.22      0          0          0          0
N010             29.91      0          0          0          0
N011             27.80      0          0          0          0
N013             26.47      0          0          0          0
N014             24.02      0          0          0          0
N015             20.20      0          0          0          0
N155             40.94      0          0          0          0
N163             39.80      0          0          0          0
N153             38.99      0          0          0          0
N152             40.04      0          0          0          0
N151             39.90      0          0          0          0
N150             38.13      0          0          0          0
N164             30.01      0          0          0          0
N165             28.45      0          0          0          0
N166             30.22      0          0          0          0
N167             26.75      0          0          0          0
N168             23.16      0          0          0          0
N169             18.32      0          0          0          0
N031             15.35      0          0          0          0
N033             9.86       0          0          0          0
N035             6.54       0          0          0          0
N036             6.86       0          0          0          0
N039             8.33       0          0          0          0
N040             9.48       0          0          0          0
N040A            7.37       0          0          0          0
N040B            7.45       0          0.16       0          0
N042             7.29       0          0.25       0          0
N042A            5.75       0          0.29       0          0
N043             4.79       0          0.34       0          0
N043A            3.67       0          0.87       0          0
N044             3.56       0          1.02       0          0
N044A            5.01       0          1.18       0          0
N046             7.99       0          1.34       0          0
N047             8.01       0          1.72       0          0
N050             4.06       0          0          0          0
N051             5.67       0          0          0          0
N055             3.00       0          0          0          0
N500             8.01       0          0.33       0          0
N601             15.92      0          0          0          0
N602             13.50      0          0          0          0
N603             8.00       0          3.00       0          0

[CONDUITS]
;;Name           From             To               Length     Roughness  InOffset   OutOffset  InitFlow   MaxFlow
;;-------------- ---------------- ---------------- ---------- ---------- ---------- ---------- ---------- ----------
L162             N162             N156             27.52      0.0130     33.71      33.69      0          0
L156             N156             N084             299.40     0.0130     34.45      33.69      0          0
L158             N158             N157             125.31     0.0130     35.12      34.62      0          0
L160             N160             N158             285.89     0.0130     36.26      35.12      0          0
L157             N157             N162             249.38     0.0130     33.87      33.71      0          0
L159             N159             N158             198.22     0.0130     37.05      35.12      0          0
L082             N082             N081             123.61     0.0130     34.38      34.20      0          0
L084             N084             N083             109.55     0.0130     34.45      32.95      0          0
L083             N083             N081             154.49     0.0130     33.89      32.95      0          0
L080             N080             N079             175.60     0.0130     33.79      32.47      0          0
L074             N074             N004             358.59     0.0130     33.46      31.04      0          0
L081             N081             N080             74.21      0.0130     34.09      33.79      0          0
L075             N074             N075             70.19      0.0150     33.46      32.78      0          0
L076             N076             N075             346.21     0.0150     32.78      32.56      0          0
L077             N076             N077             184.19     0.0130     32.56      32.24      0          0
L078             N078             N077             98.14      0.0130     32.40      32.24      0          0
L079             N079             N078             30.42      0.0130     32.47      32.40      0          0
L003             N003             N004             375.29     0.0150     30.52      29.99      0          0
L144             N144             N073             168.92     0.0130     35.45      34.95      0          0
L067             N067             N061             125.74     0.0130     33.25      32.16      0          0
L070             N070             N059             102.46     0.0130     33.52      33.42      0          0
L059             N059             N060             165.55     0.0150     33.32      32.52      0          0
L072             N072             N059             316.75     0.0130     35.00      33.69      0          0
L069             N069             N060             312.42     0.0130     34.58      33.25      0          0
L073             N073             N058             123.71     0.0130     34.45      34.00      0          0
L062             N062             N003             392.62     0.0150     31.45      30.52      0          0
L085             N085             N056             164.99     0.0130     35.67      35.57      0          0
L143             N143             N058             165.93     0.0150     36.50      35.00      0          0
268.1            N086             N085             250.83     0.0150     35.86      35.69      0          0
L063             N063             N062             310.14     0.0130     33.28      32.73      0          0
L061             N061             N062             188.12     0.0150     31.89      31.45      0          0
L066             N066             N067             159.62     0.0130     33.40      33.25      0          0
L068             N068             N067             153.55     0.0130     33.78      33.25      0          0
L060             N060             N061             173.88     0.0150     32.52      31.89      0          0
L058             N058             N059             240.66     0.0150     34.00      33.32      0          0
L057             N057             N058             307.87     0.0130     35.07      34.60      0          0
L056             N056             N057             155.23     0.0130     35.57      35.07      0          0
L127             N127             N132             314.33     0.0130     33.70      33.07      0          0
L002             N002             N003             270.28     0.0150     30.91      30.52      0          0
L001             N001             N002             356.95     0.0150     31.42      30.91      0          0
L126             N126             N127             320.74     0.0130     34.65      33.95      0          0
L130             N130             N131             177.78     0.0130     35.10      34.59      0          0
L133             N133             N132             325.00     0.0130     33.72      33.07      0          0
L134             N134             N135             321.62     0.0130     35.20      34.56      0          0
L137             N137             N138             69.14      0.0130     35.82      35.68      0          0
L136             N136             N137             99.71      0.0130     36.02      35.82      0          0
L140             N140             N141             146.61     0.0130     35.47      35.03      0          0
L131             N131             N133             290.24     0.0130     34.59      34.02      0          0
L135             N135             N133             294.02     0.0130     34.56      33.97      0          0
L138             N138             N134             241.52     0.0130     35.68      35.20      0          0
L139             N139             N140             205.35     0.0130     36.09      35.47      0          0
L141             N141             N001             409.86     0.0130     35.03      33.80      0          0
L132             N132             N001             383.22     0.0130     33.07      32.30      0          0
L004             N004             N005             345.96     0.0150     29.99      29.35      0          0
L023             N023             N024             367.77     0.0220     25.27      23.37      0          0
L022             N022             N023             367.64     0.0150     27.35      25.27      0          0
L021             N021             N022             348.54     0.0150     29.45      27.35      0          0
L020             N020             N021             359.20     0.0150     31.21      29.45      0          0
L018             N018             N019             296.43     0.0150     33.36      32.65      0          0
L017             N017             N018             321.90     0.0130     34.39      34.13      0          0
L016             N016             N017             34.46      0.0130     35.23      34.44      0          0
L007             N007             N008             358.87     0.0150     28.32      27.25      0          0
L006             N006             N007             419.61     0.0150     28.75      27.97      0          0
L005             N005             N006             323.66     0.0150     29.35      28.75      0          0
L019             N019             N020             372.13     0.0150     32.40      31.21      0          0
L124             N124             N018             307.05     0.0130     34.24      33.42      0          0
L125             N125             N017             337.73     0.0130     35.84      34.58      0          0
L100             N100             N020             167.17     0.0130     32.47      31.97      0          0
L122             N122             N020             276.69     0.0130     32.87      31.97      0          0
L115             N115             N023             199.54     0.0130     29.10      28.49      0          0
L092             N092             N099             69.56      0.0130     34.60      34.33      0          0
L090             N090             N089             292.05     0.0130     36.23      35.35      0          0
L105             N105             N021             154.74     0.0130     31.13      30.66      0          0
L107             N107             N022             270.82     0.0130     33.60      32.63      0          0
L121             N121             N122             329.31     0.0130     33.77      32.87      0          0
L120             N120             N121             322.94     0.0130     34.67      33.77      0          0
L104             N104             N105             183.21     0.0130     31.68      31.13      0          0
L103             N103             N104             122.25     0.0130     32.05      31.68      0          0
L102             N102             N103             113.73     0.0130     32.65      32.30      0          0
L101             N101             N102             322.17     0.0130     33.60      32.65      0          0
L099             N099             N019             250.90     0.0130     34.33      33.58      0          0
L111             N111             N112             146.60     0.0130     28.59      27.85      0          0
L110             N110             N111             302.95     0.0130     30.10      28.59      0          0
L108             N108             N109             282.31     0.0130     32.08      31.21      0          0
L114             N114             N115             138.48     0.0130     29.52      29.10      0          0
L113             N113             N114             176.21     0.0130     30.08      29.52      0          0
L106             N106             N107             63.56      0.0130     33.75      33.60      0          0
L118             N118             N119             289.85     0.0130     32.71      31.81      0          0
L117             N117             N118             291.42     0.0130     33.61      32.71      0          0
L116             N116             N117             318.39     0.0130     34.51      33.61      0          0
L119             N119             N021             317.51     0.0130     31.81      30.91      0          0
L089             N089             N018             303.68     0.0130     35.35      34.42      0          0
L123             N123             N019             304.05     0.0130     34.22      33.33      0          0
L128             N128             N123             301.02     0.0130     35.12      34.22      0          0
L109             N109             N110             370.24     0.0130     31.21      30.10      0          0
L097             N097             N096             280.63     0.0130     34.52      33.71      0          0
L095             N095             N096             367.56     0.0130     34.82      33.71      0          0
L094             N094             N095             144.55     0.0130     35.26      34.82      0          0
L093             N093             N094             119.36     0.0130     35.62      35.26      0          0
L091             N091             N092             242.72     0.0130     35.32      34.60      0          0
L088             N088             N089             327.63     0.0130     36.33      35.35      0          0
L087             N087             N088             263.89     0.0130     37.20      36.33      0          0
L098             N098             N100             137.25     0.0130     32.88      32.47      0          0
L096             N096             N098             304.64     0.0130     33.71      32.88      0          0
L112             N112             N024             156.65     0.0130     27.85      27.07      0          0
L154             N154             N022             307.01     0.0130     33.73      32.63      0          0
L025             N025             N026             305.86     0.0220     21.79      20.87      0          0
L024             N024             N025             307.10     0.0220     23.22      22.29      0          0
L010             N010             N011             213.00     0.0130     14.07      13.21      0          0
L009             N009             N010             371.00     0.0130     15.59      14.07      0          0
L147             N147             N148             355.54     0.0130     32.06      30.64      0          0
L146             N146             N147             269.82     0.0130     32.87      32.06      0          0
L145             N145             N146             89.18      0.0130     33.23      32.87      0          0
L149             N149             N009             291.29     0.0130     23.63      20.72      0          0
L008             N008             N149             363.34     0.0130     27.25      23.63      0          0
L148             N148             N007             323.14     0.0130     30.64      29.02      0          0
L014             N014             N015             632.00     0.0130     11.62      9.05       0          0
L013             N013             N014             303.00     0.0130     12.85      11.62      0          0
L163             N163             N008             389.70     0.0130     32.55      30.60      0          0
L155             N155             N159             143.07     0.0130     37.50      37.05      0          0
L152             N152             N026             365.34     0.0130     23.19      22.09      0          0
L153             N153             N025             354.32     0.0130     24.11      23.01      0          0
L150             N150             N149             332.86     0.0130     25.56      24.46      0          0
L168             N168             N015             305.25     0.0130     11.93      11.00      0          0
L167             N167             N014             307.76     0.0130     19.38      18.45      0          0
L169             N169             N015             312.11     0.0130     13.42      12.50      0          0
L046             N046             N047             383.27     0.0150     -5.01      -5.39      0          0
L035             N035             N036             130.23     0.0150     -2.11      -2.23      0          0
L033             N033             N035             281.65     0.0150     0.18       -2.11      0          0
L031             N031             N033             280.70     0.0150     2.50       0.18       0          0
L051             N051             N055             939.35     0.0150     -6.91      -8.50      0          0
L044             N044             N044A            245.50     0.0150     -4.69      -4.80      0          0
L043             N043             N043A            815.61     0.0150     -4.01      -4.40      0          0
L042             N042             N042A            171.58     0.0150     -3.92      -3.96      0          0
L036             N036             N039             549.78     0.0150     -2.23      -2.76      0          0
L040B            N040B            N042             90.41      0.0150     -3.83      -3.92      0          0
L040             N040             N040A            434.33     0.0150     -3.20      -3.40      0          0
L039             N039             N040             514.04     0.0150     -2.76      -3.24      0          0
L042A            N042A            N043             203.02     0.0150     -3.96      -4.01      0          0
L047             N047             N050             1076.88    0.0150     -5.40      -6.47      0          0
L043A            N043A            N044             225.88     0.0150     -4.40      -4.69      0          0
L040A            N040A            N040B            186.92     0.0150     -3.40      -3.60      0          0
L044A            N044A            N046             241.42     0.0150     -4.80      -5.01      0          0
L050             N050             N051             460.16     0.0150     -6.47      -6.91      0          0
L046B            N046             N500             800.00     0.0150     -2.01      -3.01      0          0
L031A            N031             N601             575.00     0.0130     2.50       2.07       0          0
L601             N601             N602             1670.00    0.0130     2.07       0.82       0          0
L602             N602             N603             1100.00    0.0130     0.82       0          0          0
L606             N015             N031             1612.00    0.0130     9.05       2.50       0          0
L151             N151             N009             363.00     0.0130     23.01      21.91      0          0
L026             N026             N009             289.00     0.0130     20.87      20.00      0          0
L164             N164             N010             293.00     0.0130     21.28      20.36      0          0
L165             N165             N013             291.00     0.0130     19.78      18.86      0          0
L166             N166             N013             297.00     0.0130     19.53      18.60      0          0
L011             N011             N013             88.00      0.0130     13.21      12.85      0          0

[XSECTIONS]
;;Link           Shape        Geom1      Geom2      Geom3      Geom4      Barrels
;;-------------- ------------ ---------- ---------- ---------- ---------- ----------
L162             CIRCULAR     2.00       0          0          0          1
L156             CIRCULAR     2.50       0          0          0          1
L158             CIRCULAR     1.25       0          0          0          1
L160             CIRCULAR     1.25       0          0          0          1
L157             CIRCULAR     2.00       0          0          0          1
L159             CIRCULAR     1.00       0          0          0          1
L082             CIRCULAR     0.83       0          0          0          1
L084             CIRCULAR     3.00       0          0          0          1
L083             CIRCULAR     3.00       0          0          0          1
L080             CIRCULAR     3.00       0          0          0          1
L074             CIRCULAR     3.00       0          0          0          1
L081             CIRCULAR     3.00       0          0          0          1
L075             CIRCULAR     4.00       0          0          0          1
L076             HORSESHOE    2.00       0          0          0          1
L077             CIRCULAR     3.00       0          0          0          1
L078             CIRCULAR     3.00       0          0          0          1
L079             CIRCULAR     3.00       0          0          0          1
L003             CIRCULAR     4.00       0          0          0          2
L144             CIRCULAR     1.00       0          0          0          1
L067             CIRCULAR     2.00       0          0          0          1
L070             CIRCULAR     1.00       0          0          0          1
L059             CIRCULAR     3.00       0          0          0          2
L072             CIRCULAR     1.25       0          0          0          1
L069             CIRCULAR     1.25       0          0          0          1
L073             HORSESHOE    2.00       0          0          0          1
L062             CIRCULAR     3.00       0          0          0          2
L085             RECT_CLOSED  1.00       1.00       0          0          1
L143             CIRCULAR     1.00       0          0          0          1
268.1            RECT_CLOSED  1.00       1.00       0          0          1