;; SWMM5 .inp converted from XPSWMM .xp file
;; Generated by XPSWMM Card Reader
;; Source format: XP_CARD | Original title: Kirkwood Neighborhood Storm Sewer-W008 Drainage Area

[TITLE]
;;Project Title/Notes
Kirkwood Neighborhood Storm Sewer-W008 Drainage Area

[OPTIONS]
FLOW_UNITS           CFS
INFILTRATION         HORTON
FLOW_ROUTING         DYNWAVE
LINK_OFFSETS         DEPTH
MIN_SLOPE            0.0
ALLOW_PONDING        NO
SKIP_STEADY_STATE    NO
ROUTING_STEP         00:00:30
VARIABLE_STEP        0.75
INERTIAL_DAMPING     PARTIAL
NORMAL_FLOW_LIMITED  BOTH
MAX_TRIALS           50
HEAD_TOLERANCE       0.133

[JUNCTIONS]
;;Name           Elev       MaxDepth   InitDepth  SurDepth   Aponded
;;-------------- ---------- ---------- ---------- ---------- ----------
20032            73.46      0          0          0          0
1705             75.02      0          0          0          0
20666            74.09      0          0          0          0
1706             75.69      0          0          0          0
1707             76.49      0          0          0          0
20633            75.32      0          0          0          0
20663            75.29      0          0          0          0
1708             75.85      0          0          0          0
1837             75.60      0          0          0          0
20746            75.27      0          0          0          0
20762            75.37      0          0          0          0
1835             75.55      0          0          0          0
20906            75.14      0          0          0          0
20851            74.96      0          0          0          0
1928             75.54      0          0          0          0
1921             75.77      0          0          0          0
1929             76.65      0          0          0          0
20907            75.27      0          0          0          0
20852            75.34      0          0          0          0
20914            75.66      0          0          0          0
20853            75.75      0          0          0          0
1933             76.40      0          0          0          0
1940             76.87      0          0          0          0
1850             78.52      0          0          0          0
1851             77.34      0          0          0          0
1939             77.29      0          0          0          0
20857            75.79      0          0          0          0
20920            75.83      0          0          0          0
1941             76.28      0          0          0          0
1942             75.70      0          0          0          0
1945             74.37      0          0          0          0
1946             74.44      0          0          0          0
20918            73.68      0          0          0          0
20856            73.86      0          0          0          0
1947             74.53      0          0          0          0
1949             74.96      0          0          0          0
1948             74.49      0          0          0          0
20858            73.73      0          0          0          0
20929            73.59      0          0          0          0
20932            73.52      0          0          0          0
1849             78.31      0          0          0          0
1846             77.83      0          0          0          0
1950             76.36      0          0          0          0
20928            75.19      0          0          0          0
20859            75.46      0          0          0          0
1848             78.87      0          0          0          0
1847             77.85      0          0          0          0
20789            76.81      0          0          0          0
20748            76.91      0          0          0          0
20791            77.53      0          0          0          0
1922             76.95      0          0          0          0
1930             76.95      0          0          0          0
20901            75.51      0          0          0          0
20850            75.59      0          0          0          0
1923             75.92      0          0          0          0
1926             75.50      0          0          0          0
1925             74.51      0          0          0          0
1924             75.46      0          0          0          0
20895            73.58      0          0          0          0
20849            73.46      0          0          0          0
20805            73.51      0          0          0          0
20826            73.67      0          0          0          0
1897             74.60      0          0          0          0
1931             75.07      0          0          0          0
1932             75.32      0          0          0          0
20897            74.77      0          0          0          0
20848            74.71      0          0          0          0
1841             76.41      0          0          0          0
1839             76.87      0          0          0          0
1838             78.05      0          0          0          0
110              78.10      0          0          0          0
1944             74.31      0          0          0          0
1943             75.10      0          0          0          0
20917            74.16      0          0          0          0
20919            73.80      0          0          0          0
20855            73.77      0          0          0          0
20916            73.97      0          0          0          0
165              74.00      0          0          0          0
167              75.50      0          0          0          0
169              75.60      0          0          0          0
171              75.50      0          0          0          0
173              75.80      0          0          0          0
175              73.90      0          0          0          0
177              73.90      0          0          0          0
179              74.20      0          0          0          0
185              77.65      0          0          0          0
188              73.80      0          0          0          0
204              74.90      0          0          0          0

[CONDUITS]
;;Name           From             To               Length     Roughness  InOffset   OutOffset  InitFlow   MaxFlow
;;-------------- ---------------- ---------------- ---------- ---------- ---------- ---------- ---------- ----------
30916            20916            1945             69.49      0.0130     69.27      68.87      0          0
2921             1921             1841             122.66     0.0130     64.27      64.01      0          0
152              20852            20907            42.48      0.0140     70.74      70.57      0          0
2846             1846             1849             142.59     0.0130     70.73      70.51      0          0
30633            20633            20663            38.74      0.0130     70.92      70.89      0          0
2837             1837             1835             171.43     0.0130     67.61      67.45      0          0
178              177              20855            209.22     0.0140     72.80      71.80      0          0
166              165              20032            104.08     0.0140     72.65      72.10      0          0
160              20897            1932             40.50      0.0130     69.97      69.72      0          0
2940             1940             1933             70.48      0.0130     65.57      65.50      0          0
30919            20919            1943             25.99      0.0130     69.40      69.00      0          0
2923             1923             1930             130.80     0.0130     68.32      68.05      0          0
184              179              20932            273.12     0.0140     72.40      71.60      0          0
176              175              20858            253.06     0.0140     72.80      72.00      0          0
174              173              20859            171.35     0.0140     74.30      73.50      0          0
30918            20918            1946             13.60      0.0130     68.58      68.44      0          0
2930             1930             1922             241.14     0.0130     67.60      67.15      0          0
78               20805            20826            40.74      0.0130     69.73      69.67      0          0
180              179              20856            271.39     0.0140     72.80      71.80      0          0
30901            ?                ?                47.04      0.0130     70.81      70.63      0          0
30928            20928            1950             16.03      0.0130     71.20      71.10      0          0
30856            20856            20918            37.83      0.0130     69.36      68.68      0          0
30855            20855            20919            44.39      0.0130     69.97      69.50      0          0
30762            20762            1835             20.62      0.0130     70.47      70.35      0          0
2835             1835             1928             213.83     0.0130     67.25      66.92      0          0
30859            20859            20928            33.50      0.0130     71.86      71.30      0          0
2849             1849             1850             175.38     0.0130     70.41      70.12      0          0
30929            20929            1948             25.14      0.0130     69.59      69.29      0          0
30858            20858            20929            41.40      0.0130     69.83      69.79      0          0
30746            20746            20762            41.43      0.0130     70.77      70.67      0          0
172              171              20907            437.90     0.0140     74.30      73.60      0          0
159              20848            20897            79.16      0.0130     70.91      70.17      0          0
2941             1941             1940             169.55     0.0130     66.88      66.47      0          0
2947             1947             1946             89.91      0.0130     67.63      67.44      0          0
2948             1948             1949             189.26     0.0130     69.29      68.26      0          0
2946             1946             1945             24.93      0.0130     67.40      67.34      0          0
2944             1944             1945             114.31     0.0130     68.39      67.87      0          0
2943             1943             1944             131.37     0.0130     68.90      68.49      0          0
2708             1708             1837             136.15     0.0130     68.06      67.86      0          0
2841             1841             1839             195.30     0.0130     63.91      63.87      0          0
30920            20920            1939             17.51      0.0130     71.13      70.59      0          0
2949             1949             1947             170.53     0.0130     68.26      67.73      0          0
30032            20032            20666            39.00      0.0130     69.99      69.92      0          0
2924             1924             1923             86.11      0.0130     68.56      68.32      0          0
2925             1925             1926             129.31     0.0130     69.21      68.90      0          0
2922             1922             1921             132.35     0.0130     67.05      66.47      0          0
81               1931             1932             170.98     0.0130     68.87      68.57      0          0
186              185              20857            286.30     0.0140     75.00      74.30      0          0
30914            20914            1933             10.18      0.0130     71.46      70.60      0          0
30791            20791            1847             68.74      0.0130     72.89      72.15      0          0
2945             1945             1942             182.28     0.0130     67.07      67.00      0          0
30663            20663            1708             18.08      0.0130     70.59      68.16      0          0
2926             1926             1924             111.01     0.0130     68.70      68.56      0          0
82               1932             1930             209.21     0.0130     68.62      67.95      0          0
2851             1851             1939             108.17     0.0130     69.44      69.19      0          0
2950             1950             1846             125.12     0.0130     71.00      70.83      0          0
30906            20906            1928             12.38      0.0140     69.84      68.40      0          0
30666            20666            1705             14.68      0.0130     69.89      69.62      0          0
2707             1707             1708             157.41     0.0130     68.39      68.06      0          0
2706             1706             1707             131.96     0.0130     68.49      68.39      0          0
2705             1705             1706             133.28     0.0130     69.32      69.12      0          0
168              167              20633            199.57     0.0140     74.50      73.80      0          0
30850            20850            20901            41.30      0.0130     71.29      70.81      0          0
30748            20748            20789            36.80      0.0130     72.51      72.01      0          0
2939             1939             1940             140.02     0.0130     69.09      68.37      0          0
30857            20857            20920            37.65      0.0130     71.79      71.33      0          0
2928             1928             1921             20.35      0.0140     66.74      66.47      0          0
30895            20895            1925             30.24      0.0130     69.28      69.27      0          0
190              188              20805            339.85     0.0140     72.80      71.90      0          0
189              188              20849            246.02     0.0140     72.40      71.60      0          0
187              185              20791            544.07     0.0140     75.00      74.30      0          0
154              1929             1921             67.35      0.0130     65.15      64.57      0          0
30932            20932            1948             62.97      0.0130     70.49      69.29      0          0
170              169              20746            319.55     0.0140     74.40      73.80      0          0
30853            20853            20914            44.89      0.0130     72.05      71.56      0          0
2850             1850             1851             173.78     0.0130     70.12      69.44      0          0
2848             1848             1849             91.97      0.0130     71.37      71.21      0          0
2847             1847             1848             180.22     0.0130     71.65      71.37      0          0
30851            20851            20906            38.27      0.0140     70.56      70.04      0          0
2839             1839             1838             158.30     0.0130     63.77      63.65      0          0
30789            20789            1847             26.01      0.0130     71.81      71.80      0          0
30917            20917            1943             67.87      0.0130     69.66      69.30      0          0
79               20826            1897             14.92      0.0130     69.67      69.20      0          0
205              204              20848            86.65      0.0140     74.00      73.20      0          0
153              20907            1929             11.64      0.0140     70.47      70.05      0          0
2838             1838             110              76.08      0.0130     63.63      63.50      0          0
2933             1933             1929             194.59     0.0130     65.40      65.15      0          0
30849            20849            20895            47.00      0.0130     69.42      69.38      0          0
80               1897             1931             155.60     0.0130     68.90      68.87      0          0
2942             1942             1941             158.14     0.0130     66.95      66.91      0          0

[XSECTIONS]
;;Link           Shape        Geom1      Geom2      Geom3      Geom4      Barrels
;;-------------- ------------ ---------- ---------- ---------- ---------- ----------
30916            CIRCULAR     2.00       0          0          0          1
2921             CIRCULAR     4.00       0          0          0          1
152              CIRCULAR     2.00       0          0          0          1
2846             CIRCULAR     2.00       0          0          0          1
30633            CIRCULAR     2.00       0          0          0          1
2837             CIRCULAR     2.00       0          0          0          1
178              TRAPEZOIDAL  0.50       25.00      0          0          1
166              TRAPEZOIDAL  0.50       25.00      0          0          1
160              CIRCULAR     2.00       0          0          0          1
2940             CIRCULAR     3.50       0          0          0          1
30919            CIRCULAR     2.00       0          0          0          1
2923             CIRCULAR     2.00       0          0          0          1
184              TRAPEZOIDAL  0.50       25.00      0          0          1
176              TRAPEZOIDAL  0.50       25.00      0          0          1
174              TRAPEZOIDAL  0.50       25.00      0          0          1
30918            CIRCULAR     2.00       0          0          0          1
2930             CIRCULAR     2.00       0          0          0          1
78               CIRCULAR     2.00       0          0          0          1
180              TRAPEZOIDAL  0.50       25.00      0          0          1
30901            CIRCULAR     2.00       0          0          0          1
30928            CIRCULAR     2.00       0          0          0          1
30856            CIRCULAR     2.00       0          0          0          1
30855            CIRCULAR     2.00       0          0          0          1
30762            CIRCULAR     2.00       0          0          0          1
2835             CIRCULAR     2.00       0          0          0          1
30859            CIRCULAR     2.00       0          0          0          1
2849             CIRCULAR     2.00       0          0          0          1
30929            CIRCULAR     2.00       0          0          0          1
30858            CIRCULAR     2.00       0          0          0          1
30746            CIRCULAR     2.00       0          0          0          1
172              TRAPEZOIDAL  0.50       25.00      0          0          1
159              CIRCULAR     2.00       0          0          0          1
2941             CIRCULAR     2.50       0          0          0          1
2947             CIRCULAR     2.00       0          0          0          1
2948             CIRCULAR     2.00       0          0          0          1
2946             CIRCULAR     2.00       0          0          0          1
2944             CIRCULAR     2.00       0          0          0          1
2943             CIRCULAR     2.00       0          0          0          1
2708             CIRCULAR     2.00       0          0          0          1
2841             CIRCULAR     4.50       0          0          0          1
30920            CIRCULAR     2.00       0          0          0          1
2949             CIRCULAR     2.00       0          0          0          1
30032            CIRCULAR     2.00       0          0          0          1
2924             CIRCULAR     2.00       0          0          0          1
2925             CIRCULAR     2.00       0          0          0          1
2922             CIRCULAR     2.00       0          0          0          1
81               CIRCULAR     2.00       0          0          0          1
186              TRAPEZOIDAL  0.50       25.00      0          0          1
30914            CIRCULAR     2.00       0          0          0          1
30791            CIRCULAR     2.00       0          0          0          1
2945             CIRCULAR     2.50       0          0          0          1
30663            CIRCULAR     2.00       0          0          0          1
2926             CIRCULAR     2.00       0          0          0          1
82               CIRCULAR     2.00       0          0          0          1
2851             CIRCULAR     2.00       0          0          0          1
2950             CIRCULAR     2.00       0          0          0          1
30906            CIRCULAR     2.00       0          0          0          1
30666            CIRCULAR     2.00       0          0          0          1
2707             CIRCULAR     2.00       0          0          0          1
2706             CIRCULAR     2.00       0          0          0          1
2705             CIRCULAR     2.00       0          0          0          1
168              TRAPEZOIDAL  0.50       25.00      0          0          1
30850            CIRCULAR     2.00       0          0          0          1
30748            CIRCULAR     2.00       0          0          0          1
2939             CIRCULAR     2.00       0          0          0          1
30857            CIRCULAR     2.00       0          0          0          1
2928             CIRCULAR     2.00       0          0          0          1
30895            CIRCULAR     2.00       0          0          0          1
190              TRAPEZOIDAL  0.50       25.00      0          0          1
189              TRAPEZOIDAL  0.50       25.00      0          0          1
187              TRAPEZOIDAL  0.50       25.00      0          0          1
154              CIRCULAR     4.00       0          0          0          1
30932            CIRCULAR     2.00       0          0          0          1
170              TRAPEZOIDAL  0.50       25.00      0          0          1
30853            CIRCULAR     2.00       0          0          0          1
2850             CIRCULAR     2.00       0          0          0          1
2848             CIRCULAR     2.00       0          0          0          1
2847             CIRCULAR     2.00       0          0          0          1
30851            CIRCULAR     2.00       0          0          0          1
2839             CIRCULAR     4.50       0          0          0          1
30789            CIRCULAR     2.00       0          0          0          1
30917            CIRCULAR     2.00       0          0          0          1
79               CIRCULAR     2.00       0          0          0          1
205              TRAPEZOIDAL  0.50       25.00      0          0          1
153              CIRCULAR     2.00       0          0          0          1
2838             CIRCULAR     4.50       0          0          0          1
2933             CIRCULAR     3.50       0          0          0          1
30849            CIRCULAR     2.00       0          0          0          1
80               CIRCULAR     2.00       0          0          0          1
2942             CIRCULAR     2.50       0          0          0          1

[LOSSES]
;;Link           Inlet      Outlet     Average    Flap Gate
;;-------------- ---------- ---------- ---------- ----------
30916            0          0          0          NO
2921             0          0          0          NO
152              0          0          0          NO
2846             0          0          0          NO
30633            0          0          0          NO
2837             0          0          0          NO
178              0          0          0          NO
166              0          0          0          NO
160              0          0          0          NO
2940             0          0          0          NO
30919            0          0          0          NO
2923             0          0          0          NO
184              0          0          0          NO
176              0          0          0          NO
174              0          0          0          NO
30918            0          0          0          NO
2930             0          0          0          NO
78               0          0          0          NO
180              0          0          0          NO
30901            0          0          0          NO
30928            0          0          0          NO
30856            0          0          0          NO
30855            0          0          0          NO
30762            0          0          0          NO
2835             0          0          0          NO
30859            0          0          0          NO
2849             0          0          0          NO
30929            0          0          0          NO
30858            0          0          0          NO
30746            0          0          0          NO
172              0          0          0          NO
159              0          0          0          NO
2941             0          0          0          NO
2947             0          0          0          NO
2948             0          0          0          NO
2946             0          0          0          NO
2944             0          0          0          NO
2943             0          0          0          NO
2708             0          0          0          NO
2841             0          0          0          NO
30920            0          0          0          NO
2949             0          0          0          NO
30032            0          0          0          NO
2924             0          0          0          NO
2925             0          0          0          NO
2922             0          0          0          NO
81               0          0          0          NO
186              0          0          0          NO
30914            0          0          0          NO
30791            0          0          0          NO
2945             0          0          0          NO
30663            0          0          0          NO
2926             0          0          0          NO
82               0          0          0          NO
2851             0          0          0          NO
2950             0          0          0          NO
30906            0          0          0          NO
30666            0          0          0          NO
2707             0          0          0          NO
2706             0          0          0          NO
2705             0          0          0          NO
168              0          0          0          NO
30850            0          0          0          NO
30748            0          0          0          NO
2939             0          0          0          NO
30857            0          0          0          NO
2928             0          0          0          NO
30895            0          0          0          NO
190              0          0          0          NO
189              0          0          0          NO
187              0          0          0          NO
154              0          0          0          NO
30932            0          0          0          NO
170              0          0          0          NO
30853            0          0          0          NO
2850             0          0          0          NO
2848             0          0          0          NO
2847             0          0          0          NO
30851            0          0          0          NO
2839             0          0          0          NO
30789            0          0          0          NO
30917            0          0          0          NO
79               0          0          0          NO
205              0          0          0          NO
153              0          0          0          NO
2838             0          0          0          NO
2933             0          0          0          NO
30849            0          0          0          NO
80               0          0          0          NO
2942             0          0          0          NO

[COORDINATES]
;;Node           X-Coord            Y-Coord
;;-------------- ------------------ ------------------
20032            -715202.05         3079673.81        
1705             -715201.68         3079615.58        
20666            -715197.85         3079634.03        
1706             -715069.91         3079635.61        
1707             -714947.12         3079683.93        
20633            -714842.68         3079735.55        
20663            -714809.94         3079756.25        
1708             -714817.11         3079772.67        
1837             -714702.32         3079845.89        
20746            -714577.83         3079862.94        
20762            -714538.02         3079873.47        
1835             -714537.81         3079894.08        
20906            -714341.82         3079985.66        
20851            -714353.99         3080021.94        
1928             -714339.32         3079973.62        
1921             -714319.65         3079978.83        
1929             -714256.00         3080000.83        
20907            -714259.22         3080012.01        
20852            -714273.61         3080051.98        
20914            -714073.89         3080071.77        
20853            -714090.22         3080113.57        
1933             -714071.27         3080061.97        
1940             -714005.31         3080086.79        
1850             -713772.00         3079735.35        
1851             -713863.68         3079882.98        
1939             -713925.89         3079971.47        
20857            -713974.39         3079947.34        
20920            -713941.19         3079962.98        
1941             -714047.02         3080251.41        
1942             -714042.74         3080409.49        