;; SWMM5 .inp converted from XPSWMM .xp file
;; Generated by XPSWMM Card Reader
;; Source format: XP_CARD | Original title: FALL RIVER - CDM Proposed Tunnel, modified from fr53a33%.dat

[TITLE]
;;Project Title/Notes
FALL RIVER - CDM Proposed Tunnel, modified from fr53a33%.dat

[OPTIONS]
FLOW_UNITS           CFS
INFILTRATION         HORTON
FLOW_ROUTING         DYNWAVE
LINK_OFFSETS         DEPTH
MIN_SLOPE            0.0
ALLOW_PONDING        NO
SKIP_STEADY_STATE    NO
ROUTING_STEP         00:00:10
VARIABLE_STEP        0.75
INERTIAL_DAMPING     PARTIAL
NORMAL_FLOW_LIMITED  BOTH
MAX_TRIALS           25
HEAD_TOLERANCE       0.0033

[JUNCTIONS]
;;Name           Elev       MaxDepth   InitDepth  SurDepth   Aponded
;;-------------- ---------- ---------- ---------- ---------- ----------
0                10.00      0          0          0          0
0                24.05      0          0          0          0
0                22.18      0          0          0          0
0                55.50      0          0          0          0
0                27.26      0          0          0          0
0                20.09      0          0          0          0
0                20.00      0          0          0          0
0                74.00      0          0          0          0
0                7.00       0          0          0          0
0                24.44      0          0          0          0
0                54.30      0          0          0          0
0                25.20      0          0          0          0
0                6.00       0          0          0          0
0                17.10      0          0          0          0
0                17.00      0          0          0          0
0                20.06      0          0          0          0
0                42.00      0          0          0          0
0                22.00      0          0          0          0
0                129.28     0          0          0          0
0                129.48     0          0          0          0
0                131.48     0          0          0          0
0                131.31     0          0          0          0
0                130.88     0          0          0          0
0                130.38     0          0          0          0
0                163.20     0          0          0          0
0                136.80     0          0          0          0
0                153.00     0          0          0          0
0                175.00     0          0          0          0
0                134.80     0          0          0          0
0                144.40     0          0          0          0
0                158.60     0          0          0          0
0                149.00     0          0          0          0
0                139.58     0          0          0          0
0                143.00     0          0          0          0
0                144.00     0          0          0          0
0                170.60     0          0          0          0
0                150.00     0          0          0          0
0                152.60     0          0          0          0
0                151.80     0          0          0          0
0                135.40     0          0          0          0
0                136.70     0          0          0          0
0                141.77     0          0          0          0
0                135.56     0          0          0          0
0                138.33     0          0          0          0
0                141.60     0          0          0          0
0                138.33     0          0          0          0
0                142.00     0          0          0          0
0                144.21     0          0          0          0
0                143.75     0          0          0          0
0                173.50     0          0          0          0
0                178.40     0          0          0          0
0                134.90     0          0          0          0
0                140.00     0          0          0          0
0                138.60     0          0          0          0
0                137.75     0          0          0          0
0                136.40     0          0          0          0
0                5.59       0          0          0          0
0                5.70       0          0          0          0
0                9.00       0          0          0          0
0                62.91      0          0          0          0
0                33.31      0          0          0          0
0                40.73      0          0          0          0
0                10.37      0          0          0          0
0                3.77       0          0          0          0
0                1.45       0          0          0          0
0                39.90      0          0          0          0
0                92.10      0          0          0          0
0                108.00     0          0          0          0
0                85.00      0          0          0          0
0                129.99     0          0          0          0
0                126.08     0          0          0          0
0                134.00     0          0          0          0
0                157.37     0          0          0          0
0                133.30     0          0          0          0
0                154.00     0          0          0          0
0                132.18     0          0          0          0
0                31.92      0          0          0          0
0                38.50      0          0          0          0
0                19.50      0          0          0          0
0                16.88      0          0          0          0
0                16.60      0          0          0          0
0                5.00       0          0          0          0
0                10.80      0          0          0          0
0                10.50      0          0          0          0
0                12.51      0          0          0          0
0                10.00      0          0          0          0
0                27.50      0          0          0          0
0                8.32       0          0          0          0
0                19.68      0          0          0          0
0                3.00       0          0          0          0
0                11.01      0          0          0          0
0                54.77      0          0          0          0
0                3.75       0          0          0          0
0                9.12       0          0          0          0
0                7.63       0          0          0          0
0                11.94      0          0          0          0
0                21.12      0          0          0          0
0                21.99      0          0          0          0
0                35.00      0          0          0          0
0                22.07      0          0          0          0
0                8.01       0          0          0          0
0                14.79      0          0          0          0
0                11.64      0          0          0          0
0                17.05      0          0          0          0
0                24.99      0          0          0          0
0                23.00      0          0          0          0
0                27.82      0          0          0          0
0                24.60      0          0          0          0
0                39.30      0          0          0          0
0                28.00      0          0          0          0
0                31.27      0          0          0          0
0                21.85      0          0          0          0
0                21.17      0          0          0          0
0                24.20      0          0          0          0
0                18.15      0          0          0          0
0                21.40      0          0          0          0
0                29.48      0          0          0          0
0                120.70     0          0          0          0
0                131.28     0          0          0          0
0                133.78     0          0          0          0
0                127.56     0          0          0          0
0                130.28     0          0          0          0
0                131.18     0          0          0          0
0                126.46     0          0          0          0
0                130.28     0          0          0          0
0                135.00     0          0          0          0
0                135.00     0          0          0          0
0                134.90     0          0          0          0
0                143.20     0          0          0          0
0                20.09      0          0          0          0
0                20.06      0          0          0          0
0                5.10       0          0          0          0
0                10.50      0          0          0          0
0                16.60      0          0          0          0
0                160.63     0          0          0          0
0                143.00     0          0          0          0
0                138.50     0          0          0          0
0                145.50     0          0          0          0
0                137.41     0          0          0          0
0                139.00     0          0          0          0
0                9.30       0          0          0          0
0                11.50      0          0          0          0
0                8.70       0          0          0          0
0                132.00     0          0          0          0
0                131.50     0          0          0          0
0                130.00     0          0          0          0
0                106.00     0          0          0          0
0                106.50     0          0          0          0
0                102.00     0          0          0          0
0                66.00      0          0          0          0
0                93.00      0          0          0          0
0                117.00     0          0          0          0
0                90.00      0          0          0          0
0                33.16      0          0          0          0
0                26.00      0          0          0          0
0                8.00       0          0          0          0
0                43.50      0          0          0          0
0                26.00      0          0          0          0
0                15.50      0          0          0          0
0                60.55      0          0          0          0
0                35.22      0          0          0          0
0                86.50      0          0          0          0
0                62.30      0          0          0          0
0                140.00     0          0          0          0
0                72.00      0          0          0          0
0                27.00      0          0          0          0
0                74.00      0          0          0          0
0                32.63      0          0          0          0
0                114.00     0          0          0          0
0                118.00     0          0          0          0
0                136.00     0          0          0          0
0                115.00     0          0          0          0
0                136.00     0          0          0          0
0                100.00     0          0          0          0
0                68.93      0          0          0          0
0                137.00     0          0          0          0
0                45.75      0          0          0          0
0                57.00      0          0          0          0
0                96.00      0          0          0          0
0                102.00     0          0          0          0
0                85.00      0          0          0          0
0                50.50      0          0          0          0
0                108.00     0          0          0          0
0                40.29      0          0          0          0
0                38.82      0          0          0          0
0                72.02      0          0          0          0
0                133.00     0          0          0          0
0                169.92     0          0          0          0
0                150.00     0          0          0          0
0                150.00     0          0          0          0
0                150.00     0          0          0          0
0                150.00     0          0          0          0
0                150.00     0          0          0          0
0                150.00     0          0          0          0
0                150.00     0          0          0          0
0                150.00     0          0          0          0
0                150.00     0          0          0          0
0                150.00     0          0          0          0
0                150.00     0          0          0          0
0                150.00     0          0          0          0
0                148.40     0          0          0          0
0                144.20     0          0          0          0
0                150.00     0          0          0          0
0                150.00     0          0          0          0
0                150.00     0          0          0          0
0                150.00     0          0          0          0
0                33.00      0          0          0          0
0                24.50      0          0          0          0
0                150.00     0          0          0          0
0                105.00     0          0          0          0
0                114.00     0          0          0          0
0                150.00     0          0          0          0
0                150.00     0          0          0          0
0                150.00     0          0          0          0
0                150.00     0          0          0          0
0                150.00     0          0          0          0
0                150.00     0          0          0          0
0                150.00     0          0          0          0
0                150.00     0          0          0          0
0                150.00     0          0          0          0
0                150.00     0          0          0          0
0                113.00     0          0          0          0
0                200.00     0          0          0          0
0                200.00     0          0          0          0
0                200.00     0          0          0          0
0                200.00     0          0          0          0
0                152.79     0          0          0          0
0                90.15      0          0          0          0
0                144.23     0          0          0          0
0                96.56      0          0          0          0
0                200.00     0          0          0          0
0                200.00     0          0          0          0
0                200.00     0          0          0          0
0                200.00     0          0          0          0
0                200.00     0          0          0          0
0                200.00     0          0          0          0
0                200.00     0          0          0          0
0                200.00     0          0          0          0
0                200.00     0          0          0          0
0                200.00     0          0          0          0
0                200.00     0          0          0          0
0                200.00     0          0          0          0
0                200.00     0          0          0          0
0                200.00     0          0          0          0
0                200.00     0          0          0          0
0                200.00     0          0          0          0
0                200.00     0          0          0          0
0                200.00     0          0          0          0
0                200.00     0          0          0          0
0                140.00     0          0          0          0
0                134.00     0          0          0          0
0                134.00     0          0          0          0
0                134.00     0          0          0          0
0                27.22      0          0          0          0
0                135.00     0          0          0          0
0                136.44     0          0          0          0
0                141.37     0          0          0          0
0                124.80     0          0          0          0
0                105.70     0          0          0          0
0                36.20      0          0          0          0
0                30.61      0          0          0          0
0                26.18      0          0          0          0
0                66.40      0          0          0          0
0                134.50     0          0          0          0
0                135.00     0          0          0          0
0                22.00      0          0          0          0
0                92.10      0          0          0          0
0                34.41      0          0          0          0
0                34.00      0          0          0          0
0                10.00      0          0          0          0

[STORAGE]
;;Name           Elev       MaxDepth   InitDepth  Shape      Curve/Params
;;-------------- ---------- ---------- ---------- ---------- ----------
0                40.00      -21.00     0          FUNCTIONAL 3200.00 0          0
0                22.18      0          0          FUNCTIONAL 100.00 0          0
0                23.06      -1.11      0          FUNCTIONAL 200.00 0          0
0                27.26      0          0          FUNCTIONAL 100.00 0          0
0                31.36      -11.36     0          FUNCTIONAL 200.00 0          0
0                36.20      0          0          FUNCTIONAL 100.00 0          0
0                65.00      0          0          FUNCTIONAL 64.00 0          0
0                48.00      -22.80     0          FUNCTIONAL 100.00 0          0
0                24.38      -7.38      0          FUNCTIONAL 220.00 0          0
0                30.61      0          0          FUNCTIONAL 100.00 0          0
0                30.65      0          0          FUNCTIONAL 200.00 0          0
0                13.50      0          0          FUNCTIONAL 250.00 0          0
0                21.41      -1.41      0          FUNCTIONAL 200.00 0          0
0                21.95      10.05      0          FUNCTIONAL 200.00 0          0
0                136.74     0          0          FUNCTIONAL 400.00 0          0
0                150.37     -0.37      0          FUNCTIONAL 100.00 0          0
0                26.99      0          0          FUNCTIONAL 100.00 0          0
0                22.41      0          0          FUNCTIONAL 400.00 0          0
0                110.98     0          0          FUNCTIONAL 75.00 0          0
0                7.00       -1.10      0          FUNCTIONAL 238.75 0          0
0                6.00       0          0          FUNCTIONAL 400.00 0          0
0                4.80       0          0          FUNCTIONAL 500.00 0          0
0                33.00      -4.10      0          FUNCTIONAL 400.00 0          0
0                26.18      -0.28      0          FUNCTIONAL 200.00 0          0
0                26.18      -0.28      0          FUNCTIONAL 200.00 0          0
0                4.80       0          0          FUNCTIONAL 100.00 0          0
0                4.80       0          0          FUNCTIONAL 980.00 0          0
0                8.00       0          0          FUNCTIONAL 100.00 0          0
0                150.00     -55.00     0          FUNCTIONAL 113.89 0          0
0                96.00      0          0          FUNCTIONAL 19.63 0          0
0                124.50     0          0          FUNCTIONAL 19.63 0          0
0                105.00     0          0          FUNCTIONAL 19.63 0          0
0                145.00     0          0          FUNCTIONAL 12.57 0          0
0                92.00      0          0          FUNCTIONAL 12.57 0          0
0                123.00     0          0          FUNCTIONAL 50.27 0          0
0                107.80     -2.80      0          FUNCTIONAL 19.64 0          0
0                100.00     0          0          FUNCTIONAL 19.63 0          0
0                82.00      0          0          FUNCTIONAL 19.63 0          0
0                103.20     0          0          FUNCTIONAL 12.57 0          0
0                106.00     0          0          FUNCTIONAL 12.57 0          0
0                120.00     0          0          FUNCTIONAL 12.57 0          0
0                137.50     0          0          FUNCTIONAL 12.57 0          0
0                86.00      0          0          FUNCTIONAL 12.57 0          0
0                157.00     0          0          FUNCTIONAL 490.87 0          0
0                128.00     0          0          FUNCTIONAL 12.57 0          0
0                132.00     0          0          FUNCTIONAL 12.57 0          0
0                135.00     0          0          FUNCTIONAL 19.63 0          0
0                135.00     0          0          FUNCTIONAL 12.57 0          0
0                142.00     0          0          FUNCTIONAL 19.63 0          0
0                7.00       -1.10      0          FUNCTIONAL 200.00 0          0

[CONDUITS]
;;Name           From             To               Length     Roughness  InOffset   OutOffset  InitFlow   MaxFlow
;;-------------- ---------------- ---------------- ---------- ---------- ---------- ---------- ---------- ----------
289              0                0                660.00     0.0080     -6.81      -15.00     0          0
290              0                0                173.00     0.0150     -6.49      -6.81      0          0
316              0                0                571.00     0.0150     -2.99      -3.37      0          0
314              0                0                22.00      0.0150     1.75       0.37       0          0
312              0                0                697.00     0.0150     8.80       2.58       0          0
885              0                0                218.00     0.0140     99.00      86.30      0          0
293              0                0                358.00     0.0150     24.80      5.52       0          0
294              0                0                419.05     0.0150     86.30      76.25      0          0
281              0                0                190.00     0.0150     0.78       -0.36      0          0
280              0                0                10.00      0.0150     -0.36      -2.12      0          0
320              0                0                600.00     0.0150     8.00       1.24       0          0
317              0                0                10.00      0.0150     1.24       -1.74      0          0
318              0                0                638.46     0.0140     -3.43      -6.27      0          0
803              0                0                374.20     0.0150     22.40      18.60      0          0
323              0                0                325.00     0.0150     -4.25      -9.58      0          0
322              0                0                335.90     0.0150     -3.38      -4.43      0          0
328              0                0                536.30     0.0150     -1.11      -2.25      0          0
1115556          ?                0                388.00     0.0150     2.60       1.63       0          0
325              0                0                1100.00    0.0150     9.21       2.80       0          0
326              0                0                1234.00    0.0150     2.80       -5.12      0          0
251              0                0                509.00     0.0120     132.80     129.51     0          0
104837           ?                0                1095.42    0.0150     123.58     123.00     0          0
249              0                0                894.00     0.0140     125.30     124.43     0          0
247              0                0                175.00     0.0150     141.85     128.69     0          0
248              0                0                202.00     0.0150     167.63     143.17     0          0
304              0                0                480.00     0.0140     138.67     122.50     0          0
303              0                0                464.00     0.0150     122.50     120.48     0          0
302              0                0                425.00     0.0140     148.07     118.86     0          0
301              0                0                373.00     0.0140     118.86     115.24     0          0
299              0                0                422.00     0.0150     115.28     110.30     0          0
298              0                0                26.00      0.0140     110.30     106.87     0          0
256              0                0                831.47     0.0150     159.64     139.00     0          0
241              0                0                82.77      0.0150     124.93     124.84     0          0
274              0                0                571.00     0.0150     122.54     121.98     0          0
278              0                0                518.17     0.0150     125.65     123.02     0          0
243              0                0                766.00     0.0150     116.75     116.14     0          0
305              0                0                520.00     0.0150     111.12     110.37     0          0
242              0                0                282.00     0.0100     123.35     121.68     0          0
257              0                0                465.67     0.0150     126.32     124.93     0          0
252              0                0                717.57     0.0150     134.14     132.79     0          0
273              0                0                241.60     0.0150     138.42     133.85     0          0
269              0                0                18.73      0.0150     133.85     133.28     0          0
268              0                0                137.00     0.0150     131.17     128.18     0          0
270              0                0                244.75     0.0150     133.28     129.26     0          0
271              0                0                661.00     0.0150     163.64     133.83     0          0
265              0                0                243.78     0.0100     128.18     126.37     0          0
267              0                0                237.38     0.0140     129.26     127.86     0          0
239              0                0                752.00     0.0150     117.40     116.95     0          0
272              0                0                699.39     0.0150     168.27     132.00     0          0
263              0                0                680.00     0.0150     132.00     127.86     0          0
262              0                0                233.76     0.0100     126.37     124.45     0          0
264              0                0                487.00     0.0150     127.86     125.50     0          0
260              0                0                646.00     0.0150     139.53     132.75     0          0
275              0                0                351.00     0.0120     132.75     128.39     0          0
276              0                0                396.33     0.0120     128.86     124.45     0          0
277              0                0                175.00     0.0140     128.39     125.50     0          0
297              0                0                640.00     0.0150     104.38     66.72      0          0
232              0                0                328.00     0.0150     12.58      12.26      0          0
230              0                0                915.00     0.0150     12.26      11.73      0          0
228              0                0                570.00     0.0150     11.77      11.25      0          0
224              0                0                630.00     0.0150     7.44       7.12       0          0
205              0                0                890.00     0.0150     6.00       5.00       0          0
206              0                0                160.00     0.0150     11.10      9.50       0          0
208              0                0                974.20     0.0150     39.66      12.10      0          0
221              0                0                594.00     0.0150     40.90      11.72      0          0
207              0                0                523.11     0.0150     12.10      -5.00      0          0
222              0                0                288.52     0.0150     14.42      -3.46      0          0
216              0                0                100.00     0.0150     12.04      11.79      0          0
219              0                0                694.00     0.0150     45.90      14.04      0          0
11109            ?                0                158.00     0.0150     14.04      0          0          0
211              0                0                20.00      0.0150     15.01      13.54      0          0