;; SWMM5 .inp converted from XPSWMM .xp file
;; Generated by XPSWMM Card Reader
;; Source format: XP_CARD | Original title: COAST TRUNK SEWER - Ultimate Dry Weather Flows

[TITLE]
;;Project Title/Notes
COAST TRUNK SEWER - Ultimate Dry Weather Flows

[OPTIONS]
FLOW_UNITS           CFS
INFILTRATION         HORTON
FLOW_ROUTING         DYNWAVE
LINK_OFFSETS         DEPTH
MIN_SLOPE            0.0
ALLOW_PONDING        NO
SKIP_STEADY_STATE    NO
ROUTING_STEP         00:00:02
VARIABLE_STEP        0.75
INERTIAL_DAMPING     PARTIAL
NORMAL_FLOW_LIMITED  BOTH
MAX_TRIALS           100
HEAD_TOLERANCE       0.0033

[JUNCTIONS]
;;Name           Elev       MaxDepth   InitDepth  SurDepth   Aponded
;;-------------- ---------- ---------- ---------- ---------- ----------
CND00068         2.60       0          0          0          0
CND00253         2.50       0          0          0          0
CND01255         2.50       0          0          0          0
CND01400         2.50       0          0          0          0
CND01648         2.50       0          0          0          0
CND02032         2.50       0          0          0          0
CND02738         4.00       0          0          0          0
CND03719         4.50       0          0          0          0
CND04060         4.50       0          0          0          0
CND04379         2.85       0          0          0          0
CND04641         2.50       0          0          0          0
CND04896         2.75       0          0          0          0
CND05161         3.00       0          0          0          0
CND05387         4.50       0          0          0          0
CND06455         4.50       0          0          0          0
CND06580         4.50       0          0          0          0
CND06715         6.00       0          0          0          0
CND07050         6.00       0          0          0          0
CND07500         6.00       0          0          0          0
CND07913         6.50       0          0          0          0
CND08036         6.50       0          0          0          0
CND08633         6.00       0          0          0          0
CND09303         6.50       0          0          0          0
CND09364         6.00       0          0          0          0
CND10396         6.00       0          0          0          0
CND10609         16.50      0          0          0          0
CND10710         18.00      0          0          0          0
CND10987         33.50      0          0          0          0
CND11338         33.50      0          0          0          0
CND11999         35.50      0          0          0          0
CND13319         35.50      0          0          0          0
CND13625         35.25      0          0          0          0
CND13983         36.50      0          0          0          0
CND14639         38.50      0          0          0          0
CND15298         51.00      0          0          0          0
CND15634         51.00      0          0          0          0
CND15958         49.50      0          0          0          0
CND16519         48.50      0          0          0          0
CND16927         50.00      0          0          0          0
CND17100         50.00      0          0          0          0
CND17276         55.50      0          0          0          0
CND17612         65.00      0          0          0          0
CND17940         60.00      0          0          0          0
CND18574         66.00      0          0          0          0
CND18660         66.00      0          0          0          0
CND19253         66.00      0          0          0          0
CND19917         65.00      0          0          0          0
CND20212         62.50      0          0          0          0
CND20720         62.50      0          0          0          0
CND20955         65.00      0          0          0          0
CND21617         64.50      0          0          0          0
CND22252         62.50      0          0          0          0
CCL01729         10.00      0          0          0          0
CCL02203         8.00       0          0          0          0
CCL02532         8.50       0          0          0          0
CCL03220         6.00       0          0          0          0
CCL04087         9.00       0          0          0          0
CCL05174         9.00       0          0          0          0
CCL06446         9.00       0          0          0          0
CCL07606         7.00       0          0          0          0
CCL08622         7.50       0          0          0          0
CCL09401         7.50       0          0          0          0
CCL09666         8.00       0          0          0          0
CCL10079         9.00       0          0          0          0
CCL11236         7.50       0          0          0          0
CCL12323         8.00       0          0          0          0
CCL13053         13.00      0          0          0          0
CCL13777         13.50      0          0          0          0
CCL14804         13.50      0          0          0          0
CCL15604         13.50      0          0          0          0
CCL16898         26.00      0          0          0          0
CCL17186         28.00      0          0          0          0
CCL17340         28.00      0          0          0          0
CCL17417         28.00      0          0          0          0
CCU17933         29.20      0          0          0          0
CCU18253         28.80      0          0          0          0
CCU18575         27.50      0          0          0          0
CCU18888         28.00      0          0          0          0
CCU19217         28.50      0          0          0          0
CCU19529         29.10      0          0          0          0
CCU19854         31.00      0          0          0          0
CCU20177         35.10      0          0          0          0
CCU20499         36.90      0          0          0          0
CCU20844         30.00      0          0          0          0
CCU21168         30.00      0          0          0          0
CCU21347         38.80      0          0          0          0
CCU21495         28.90      0          0          0          0
CCU21819         28.70      0          0          0          0
CCU22137         28.00      0          0          0          0
CCU22451         27.60      0          0          0          0
CCU22964         27.50      0          0          0          0
CCU23788         29.50      0          0          0          0
CCU23954         30.10      0          0          0          0
CCU24280         30.80      0          0          0          0
CCU24606         31.10      0          0          0          0
CCU24925         30.50      0          0          0          0
CCU25252         31.00      0          0          0          0
CCU25499         32.40      0          0          0          0
CNI1102          8.00       0          0          0          0
CNI1148          7.90       0          0          0          0
CNI2735          7.10       0          0          0          0
CNI3334          3.00       0          0          0          0
CNI3362          2.70       0          0          0          0
CAI0875          3.70       0          0          0          0
CAI1245          14.50      0          0          0          0
CAI1355          14.80      0          0          0          0
CAI1835          3.10       0          0          0          0
CAI2041          3.10       0          0          0          0
CAI2995          18.50      0          0          0          0
CAI3477          29.10      0          0          0          0
CAI4168          33.00      0          0          0          0
CLA0315          33.80      0          0          0          0
CLA0638          36.70      0          0          0          0
CLA0817          36.80      0          0          0          0
CLA1165          37.80      0          0          0          0
CLA1515          38.80      0          0          0          0
CLA1665          40.00      0          0          0          0
CLA2215          40.60      0          0          0          0
CLA2565          40.50      0          0          0          0
CLA2915          40.00      0          0          0          0
CLA3265          39.60      0          0          0          0
CLA3615          40.00      0          0          0          0
CLA3965          41.00      0          0          0          0
CLA4278          41.60      0          0          0          0
CLA4591          40.00      0          0          0          0
CLA4960          36.00      0          0          0          0
CLA5223          37.40      0          0          0          0
CLA5408          38.70      0          0          0          0
CLA5743          39.50      0          0          0          0
CLA6093          39.60      0          0          0          0

[STORAGE]
;;Name           Elev       MaxDepth   InitDepth  Shape      Curve/Params
;;-------------- ---------- ---------- ---------- ---------- ----------
CAI2700          20.10      0          0          FUNCTIONAL 100.00 0          0

[CONDUITS]
;;Name           From             To               Length     Roughness  InOffset   OutOffset  InitFlow   MaxFlow
;;-------------- ---------------- ---------------- ---------- ---------- ---------- ---------- ---------- ----------
CND00068C        CND00068         CNI3362          41.00      0.0130     -8.32      -8.33      0          0
CND00253C        CND00253         CND00068         185.10     0.0130     -8.25      -8.32      0          0
CND01255C        CND01255         CND00253         1001.90    0.0130     -7.50      -8.25      0          0
CND01400C        CND01400         CND01255         145.00     0.0130     -7.33      -7.50      0          0
CND01648C        CND01648         CND01400         248.90     0.0130     -7.20      -7.33      0          0
CND02032C        CND02032         CND01648         383.10     0.0130     -6.89      -7.20      0          0
CND02738C        CND02738         CND02032         706.90     0.0130     -6.39      -6.89      0          0
CND03719C        CND03719         CND02738         980.10     0.0134     -5.70      -6.39      0          0
CND04060C        CND04060         CND03719         341.60     0.0130     -5.47      -5.70      0          0
CND04379C        CND04379         CND04060         318.40     0.0142     -5.20      -5.47      0          0
CND04641C        CND04641         CND04379         262.00     0.0130     -5.10      -5.20      0          0
CND04896C        CND04896         CND04641         255.00     0.0130     -5.05      -5.10      0          0
CND05161C        CND05161         CND04896         265.00     0.0130     -4.99      -5.05      0          0
CND05387C        CND05387         CND05161         226.00     0.0130     -4.67      -4.99      0          0
CND06455C        CND06455         CND05387         1068.00    0.0130     -4.09      -4.67      0          0
CND06580C        CND06580         CND06455         125.00     0.0130     -3.87      -4.09      0          0
CND06715C        CND06715         CND06580         135.00     0.0130     -3.63      -3.87      0          0
CND07050C        CND07050         CND06715         335.00     0.0130     -3.20      -3.63      0          0
CND07500C        CND07500         CND07050         450.00     0.0130     -2.85      -3.20      0          0
CND07913C        CND07913         CND07500         414.00     0.0130     -2.65      -2.85      0          0
CND08036C        CND08036         CND07913         122.10     0.0130     -2.40      -2.65      0          0
CND08633C        CND08633         CND08036         597.60     0.0130     -1.90      -2.40      0          0
CND09303C        CND09303         CND08633         669.80     0.0130     -1.30      -1.90      0          0
CND09364C        CND09364         CND09303         60.50      0.0130     -1.25      -1.30      0          0
CND10396C        CND10396         CND09364         1032.40    0.0133     1.75       -1.25      0          0
CND10609C        CND10609         CND10396         213.00     0.0130     2.25       1.75       0          0
CND10710C        CND10710         CND10609         101.40     0.0130     8.16       3.56       0          0
CND10987C        CND10987         CND10710         276.40     0.0130     20.50      8.16       0          0
CND11338C        CND11338         CND10987         350.90     0.0130     21.81      20.50      0          0
CND11999C        CND11999         CND11338         661.70     0.0130     23.54      21.81      0          0
CND13319C        CND13319         CND11999         1319.30    0.0132     26.70      23.54      0          0
CND13625C        CND13625         CND13319         306.00     0.0130     27.70      26.70      0          0
CND13983C        CND13983         CND13625         358.00     0.0130     28.00      27.70      0          0
CND14639C        CND14639         CND13983         656.00     0.0130     36.00      28.30      0          0
CND15298C        CND15298         CND14639         659.00     0.0130     37.58      36.00      0          0
CND15634C        CND15634         CND15298         336.00     0.0130     38.30      37.58      0          0
CND15958C        CND15958         CND15634         324.00     0.0130     39.17      38.30      0          0
CND16519C        CND16519         CND15958         561.50     0.0130     40.51      39.17      0          0
CND16927C        CND16927         CND16519         408.40     0.0130     41.49      40.51      0          0
CND17100C        CND17100         CND16927         172.10     0.0130     41.90      41.49      0          0
CND17276C        CND17276         CND17100         176.20     0.0130     42.34      41.90      0          0
CND17612C        CND17612         CND17276         335.80     0.0136     44.16      42.60      0          0
CND17940C        CND17940         CND17612         328.00     0.0130     45.66      44.16      0          0
CND18574C        CND18574         CND17940         634.00     0.0130     48.56      45.66      0          0
CND18660C        CND18660         CND18574         120.00     0.0130     50.00      48.56      0          0
CND19253C        CND19253         CND18660         593.70     0.0130     50.06      50.00      0          0
CND19917C        CND19917         CND19253         664.10     0.0130     51.54      50.06      0          0
CND20212C        CND20212         CND19917         295.00     0.0139     52.90      51.54      0          0
CND20720C        CND20720         CND20212         507.20     0.0130     53.40      52.90      0          0
CND20955C        CND20955         CND20720         235.00     0.0130     53.82      53.40      0          0
CND21617C        CND21617         CND20955         662.00     0.0134     55.28      53.82      0          0
CND22252C        CND22252         CND21617         635.50     0.0130     56.66      55.28      0          0
CCL02203C        CCL02203         CCL01729         474.00     0.0130     -14.30     -14.38     0          0
CCL02532C        CCL02532         CCL02203         328.80     0.0130     -14.25     -14.30     0          0
CCL03220C        CCL03220         CCL02532         687.80     0.0130     -14.14     -14.25     0          0
CCL04087C        CCL04087         CCL03220         867.20     0.0130     -14.00     -14.14     0          0
CCL05174C        CCL05174         CCL04087         1087.00    0.0142     -13.80     -14.00     0          0
CCL06446C        CCL06446         CCL05174         1272.00    0.0130     -13.59     -13.80     0          0
CCL07606C        CCL07606         CCL06446         1160.00    0.0130     -11.73     -13.59     0          0
CCL08622C        CCL08622         CCL07606         1016.00    0.0130     -11.34     -11.73     0          0
CCL09401C        CCL09401         CCL08622         779.10     0.0130     -11.12     -11.34     0          0
CCL09666C        CCL09666         CCL09401         265.30     0.0210     -11.12     -11.12     0          0
CCL10079C        CCL10079         CCL09666         412.40     0.0130     -11.01     -11.12     0          0
CCL11236C        CCL11236         CCL10079         1157.20    0.0130     -10.31     -10.54     0          0
CCL12323C        CCL12323         CCL11236         1086.80    0.0130     -8.23      -10.31     0          0
CCL13053C        CCL13053         CCL12323         730.00     0.0130     -5.94      -8.23      0          0
CCL13777C        CCL13777         CCL13053         724.50     0.0130     -5.42      -5.94      0          0
CCL14804C        CCL14804         CCL13777         1026.70    0.0130     -3.70      -5.42      0          0
CCL15604C        CCL15604         CCL14804         800.50     0.0130     -2.12      -3.70      0          0
CCL16898C        CCL16898         CCL15604         1293.30    0.0130     -0.67      -2.12      0          0
CCL17186C        CCL17186         CCL16898         288.80     0.0130     -0.14      -0.65      0          0
CCL17340C        CCL17340         CCL17186         153.20     0.0130     -0.04      -0.14      0          0
CCL17417C        CCL17417         CCL17340         77.90      0.0130     0.08       -0.04      0          0
CCU17933C        CCU17933         CCL17417         515.20     0.0130     0.66       0.08       0          0
CCU18253C        CCU18253         CCU17933         320.50     0.0130     1.18       0.66       0          0
CCU18575C        CCU18575         CCU18253         321.80     0.0130     1.72       1.18       0          0
CCU18888C        CCU18888         CCU18575         313.20     0.0130     2.22       1.72       0          0
CCU19217C        CCU19217         CCU18888         329.00     0.0130     2.75       2.22       0          0
CCU19529C        CCU19529         CCU19217         312.00     0.0130     3.21       2.75       0          0
CCU19854C        CCU19854         CCU19529         324.50     0.0130     3.80       3.21       0          0
CCU20177C        CCU20177         CCU19854         323.00     0.0130     4.24       3.81       0          0
CCU20499C        CCU20499         CCU20177         322.00     0.0130     4.67       4.24       0          0
CCU20844C        CCU20844         CCU20499         345.00     0.0130     5.12       4.67       0          0
CCU21168C        CCU21168         CCU20844         324.00     0.0130     5.55       5.12       0          0
CCU21347C        CCU21347         CCU21168         179.00     0.0130     5.78       5.55       0          0
CCU21495C        CCU21495         CCU21347         148.00     0.0130     5.97       5.78       0          0
CCU21819C        CCU21819         CCU21495         324.50     0.0130     6.40       5.97       0          0
CCU22137C        CCU22137         CCU21819         318.00     0.0130     6.76       6.40       0          0
CCU22451C        CCU22451         CCU22137         313.50     0.0130     7.10       6.76       0          0
CCU22964C        CCU22964         CCU22451         513.50     0.0130     7.66       7.10       0          0
CCU23788C        CCU23788         CCU22964         823.50     0.0139     8.65       7.76       0          0
CCU23954C        CCU23954         CCU23788         166.00     0.0170     8.92       8.75       0          0
CCU24280C        CCU24280         CCU23954         326.00     0.0130     9.25       8.92       0          0
CCU24606C        CCU24606         CCU24280         326.00     0.0130     9.58       9.25       0          0
CCU24925C        CCU24925         CCU24606         319.50     0.0130     9.91       9.58       0          0
CCU25252C        CCU25252         CCU24925         327.00     0.0130     10.24      9.91       0          0
CCU25499C        CCU25499         CCU25252         247.40     0.0130     10.50      10.24      0          0
CNI1102C         CNI1102          CCL10079         111.90     0.0130     -10.00     -10.50     0          0
CNI1148C         CNI1148          CNI1102          46.00      0.0130     -9.99      -10.00     0          0
CNI2735C         CNI2735          CNI1148          1586.20    0.0134     -9.71      -9.99      0          0
CNI3334C         CNI3334          CNI2735          599.00     0.0130     -9.09      -9.71      0          0
CNI3362C         CNI3362          CNI3334          28.00      0.0130     -9.09      -9.09      0          0
CAI0875C         CAI0875          CND04060         868.40     0.0130     -3.50      -4.50      0          0
CAI1245C         CAI1245          CAI0875          370.00     0.0130     -3.01      -3.50      0          0
CAI1355C         CAI1355          CAI1245          110.00     0.0130     -2.90      -3.01      0          0
CAI1835C         CAI1835          CAI1355          480.20     0.0130     -2.32      -2.90      0          0
CAI2041C         CAI2041          CAI1835          206.50     0.0130     -2.07      -2.32      0          0
CAI2700C         CAI2700          CAI2041          658.40     0.0130     -1.28      -2.07      0          0
CAI2995C         CAI2995          CAI2700          295.00     0.0130     9.13       -0.90      0          0
CAI3477C         CAI3477          CAI2995          482.00     0.0130     9.90       9.13       0          0
CAI4168C         CAI4168          CAI3477          691.00     0.0130     11.01      9.90       0          0
CLA0315C         CLA0315          CCL17340         315.00     0.0136     14.23      13.60      0          0
CLA0638C         CLA0638          CLA0315          323.20     0.0130     14.88      14.23      0          0
CLA0817C         CLA0817          CLA0638          179.00     0.0130     15.50      14.88      0          0
CLA1165C         CLA1165          CLA0817          348.00     0.0130     16.20      15.50      0          0
CLA1515C         CLA1515          CLA1165          350.00     0.0130     16.90      16.20      0          0
CLA1665C         CLA1665          CLA1515          150.00     0.0130     17.60      16.90      0          0
CLA2215C         CLA2215          CLA1665          550.00     0.0130     18.30      17.60      0          0
CLA2565C         CLA2565          CLA2215          350.00     0.0130     19.00      18.30      0          0
CLA2915C         CLA2915          CLA2565          350.00     0.0130     19.70      19.00      0          0
CLA3265C         CLA3265          CLA2915          350.00     0.0130     20.40      19.70      0          0
CLA3615C         CLA3615          CLA3265          350.00     0.0130     21.10      20.40      0          0
CLA3965C         CLA3965          CLA3615          350.00     0.0130     21.80      21.10      0          0
CLA4278C         CLA4278          CLA3965          313.00     0.0130     22.43      21.80      0          0
CLA4591C         CLA4591          CLA4278          313.00     0.0130     23.05      22.43      0          0
CLA4960C         CLA4960          CLA4591          368.80     0.0130     23.79      23.05      0          0
CLA5223C         CLA5223          CLA4960          263.50     0.0130     24.32      23.79      0          0
CLA5408C         CLA5408          CLA5223          185.50     0.0130     24.69      24.32      0          0
CLA5743C         CLA5743          CLA5408          335.00     0.0130     25.36      24.69      0          0
CLA6093C         CLA6093          CLA5743          349.20     0.0130     26.06      25.36      0          0

[XSECTIONS]
;;Link           Shape        Geom1      Geom2      Geom3      Geom4      Barrels
;;-------------- ------------ ---------- ---------- ---------- ---------- ----------
CND00068C        CIRCULAR     3.00       0          0          0          1
CND00253C        CIRCULAR     3.00       0          0          0          1
CND01255C        CIRCULAR     3.00       0          0          0          1
CND01400C        CIRCULAR     2.75       0          0          0          1
CND01648C        CIRCULAR     3.00       0          0          0          1
CND02032C        CIRCULAR     3.00       0          0          0          1
CND02738C        CIRCULAR     2.75       0          0          0          1
CND03719C        CIRCULAR     2.75       0          0          0          1
CND04060C        CIRCULAR     2.75       0          0          0          1
CND04379C        CIRCULAR     2.75       0          0          0          1
CND04641C        CIRCULAR     2.75       0          0          0          1
CND04896C        CIRCULAR     2.75       0          0          0          1
CND05161C        CIRCULAR     2.75       0          0          0          1
CND05387C        CIRCULAR     2.75       0          0          0          1
CND06455C        CIRCULAR     2.75       0          0          0          1
CND06580C        CIRCULAR     2.75       0          0          0          1
CND06715C        CIRCULAR     2.75       0          0          0          1
CND07050C        CIRCULAR     2.50       0          0          0          1
CND07500C        CIRCULAR     2.50       0          0          0          1
CND07913C        CIRCULAR     2.50       0          0          0          1
CND08036C        CIRCULAR     2.50       0          0          0          1
CND08633C        CIRCULAR     2.50       0          0          0          1
CND09303C        CIRCULAR     2.50       0          0          0          1
CND09364C        CIRCULAR     2.50       0          0          0          1
CND10396C        CIRCULAR     2.00       0          0          0          1
CND10609C        CIRCULAR     2.00       0          0          0          1
CND10710C        CIRCULAR     1.25       0          0          0          1
CND10987C        CIRCULAR     1.25       0          0          0          1
CND11338C        CIRCULAR     2.00       0          0          0          1
CND11999C        CIRCULAR     2.00       0          0          0          1
CND13319C        CIRCULAR     2.00       0          0          0          1
CND13625C        CIRCULAR     2.00       0          0          0          1
CND13983C        CIRCULAR     2.00       0          0          0          1
CND14639C        CIRCULAR     1.50       0          0          0          1
CND15298C        CIRCULAR     2.00       0          0          0          1
CND15634C        CIRCULAR     2.00       0          0          0          1
CND15958C        CIRCULAR     2.00       0          0          0          1
CND16519C        CIRCULAR     2.00       0          0          0          1
CND16927C        CIRCULAR     2.00       0          0          0          1
CND17100C        CIRCULAR     2.00       0          0          0          1
CND17276C        CIRCULAR     2.00       0          0          0          1
CND17612C        CIRCULAR     1.75       0          0          0          1
CND17940C        CIRCULAR     1.75       0          0          0          1
CND18574C        CIRCULAR     1.75       0          0          0          1
CND18660C        CIRCULAR     2.00       0          0          0          1
CND19253C        CIRCULAR     2.00       0          0          0          1
CND19917C        CIRCULAR     2.00       0          0          0          1
CND20212C        CIRCULAR     2.00       0          0          0          1
CND20720C        CIRCULAR     2.00       0          0          0          1
CND20955C        CIRCULAR     2.00       0          0          0          1
CND21617C        CIRCULAR     2.00       0          0          0          1
CND22252C        CIRCULAR     2.00       0          0          0          1
CCL02203C        CIRCULAR     7.00       0          0          0          1
CCL02532C        CIRCULAR     7.00       0          0          0          1
CCL03220C        CIRCULAR     7.00       0          0          0          1
CCL04087C        CIRCULAR     7.00       0          0          0          1
CCL05174C        CIRCULAR     7.00       0          0          0          1
CCL06446C        CIRCULAR     7.00       0          0          0          1
CCL07606C        CIRCULAR     7.00       0          0          0          1
CCL08622C        CIRCULAR     7.00       0          0          0          1
CCL09401C        CIRCULAR     7.00       0          0          0          1
CCL09666C        CIRCULAR     7.00       0          0          0          1
CCL10079C        CIRCULAR     7.00       0          0          0          1
CCL11236C        CIRCULAR     4.50       0          0          0          1
CCL12323C        CIRCULAR     4.50       0          0          0          1
CCL13053C        CIRCULAR     4.50       0          0          0          1
CCL13777C        CIRCULAR     4.50       0          0          0          1
CCL14804C        CIRCULAR     4.50       0          0          0          1
CCL15604C        CIRCULAR     4.50       0          0          0          1
CCL16898C        CIRCULAR     4.50       0          0          0          1
CCL17186C        CIRCULAR     6.00       0          0          0          1
CCL17340C        CIRCULAR     4.50       0          0          0          1
CCL17417C        CIRCULAR     4.50       0          0          0          1
CCU17933C        CIRCULAR     4.50       0          0          0          1
CCU18253C        CIRCULAR     4.50       0          0          0          1
CCU18575C        CIRCULAR     4.50       0          0          0          1
CCU18888C        CIRCULAR     4.50       0          0          0          1
CCU19217C        CIRCULAR     4.50       0          0          0          1
CCU19529C        CIRCULAR     4.50       0          0          0          1
CCU19854C        CIRCULAR     4.50       0          0          0          1
CCU20177C        CIRCULAR     4.50       0          0          0          1
CCU20499C        CIRCULAR     4.50       0          0          0          1
CCU20844C        CIRCULAR     4.50       0          0          0          1