;; SWMM5 .inp converted from XPSWMM .xp file
;; Generated by XPSWMM Card Reader
;; Source format: XP_CARD | Original title: (none)

[TITLE]
;;Project Title/Notes
Converted from XPSWMM .xp file

[OPTIONS]
FLOW_UNITS           CFS
INFILTRATION         HORTON
FLOW_ROUTING         DYNWAVE
LINK_OFFSETS         DEPTH
MIN_SLOPE            0.0
ALLOW_PONDING        NO
SKIP_STEADY_STATE    NO
ROUTING_STEP         00:00:15
VARIABLE_STEP        0.75
INERTIAL_DAMPING     PARTIAL
NORMAL_FLOW_LIMITED  BOTH
MAX_TRIALS           50
HEAD_TOLERANCE       0.0033

[JUNCTIONS]
;;Name           Elev       MaxDepth   InitDepth  SurDepth   Aponded
;;-------------- ---------- ---------- ---------- ---------- ----------
KK01AL0100       12.47      0          0          0          0
KK01AL0200       11.76      0          0          0          0
KK01AL0300       11.97      0          0          0          0
KK01AL0400       11.83      0          0          0          0
KK01AL0500       12.00      0          0          0          0
KK01AL0600       11.16      0          0          0          0
KK01AL0700       9.82       0          0          0          0
KK01AL0800       9.12       0          0          0          0
KK01AL0900       8.49       0          0          0          0
KK01AL1000       8.68       0          0          0          0
KK01AL1100       8.80       0          0          0          0
KK01AL1200       7.56       0          0          0          0
KK01XA0100       7.60       0          0          0          0
KK01XA0200       7.68       0          0          0          0
KK01XA0300       6.63       0          0          0          0
KK01XA0400       8.27       0          0          0          0
KK01XA0500       7.33       0          0          0          0
KK01XA0600       6.80       0          0          0          0
KK01XA0700       5.83       0          0          0          0
KK01XA0800       6.56       0          0          0          0
KK01XA0900       10.51      0          0          0          0
KK01XA1000       10.81      0          0          0          0
KK01XA1100       10.01      0          0          0          0
KK01XA1200       7.92       0          0          0          0
KK01XA1300       8.56       0          0          0          0
KK01XA1400       8.55       0          0          0          0
KK01XA1500       8.57       0          0          0          0
KK01XA1600       8.96       0          0          0          0
KK01XA1700       8.95       0          0          0          0
KK01XA1800       9.50       0          0          0          0
KK01XA1900       9.48       0          0          0          0
KK01XA2000       9.69       0          0          0          0
KK01XA2100       9.42       0          0          0          0
KK01XA2200       9.29       0          0          0          0
KK01XA2300       9.31       0          0          0          0
KK01XA2400       9.46       0          0          0          0
KK01XA2500       9.22       0          0          0          0
KK01XA2600       10.86      0          0          0          0
KK01XA2700       11.51      0          0          0          0
KK01XA2800       11.50      0          0          0          0
KK01XA2900       12.05      0          0          0          0
KK01XA3000       12.26      0          0          0          0
KK01XA3100       12.05      0          0          0          0
KK01XA3200       12.12      0          0          0          0
KK01XA3300       10.84      0          0          0          0
KK01XA3400       9.68       0          0          0          0
KK01XA3500       9.84       0          0          0          0
KK01XA3600       10.76      0          0          0          0
KK01XA3700       10.59      0          0          0          0
KK01XA3800       9.29       0          0          0          0
KK01XA3900       9.21       0          0          0          0
KK01XA4000       9.00       0          0          0          0
KK01XA4100       8.63       0          0          0          0
KK01XA4200       8.69       0          0          0          0
KK01XA4300       9.04       0          0          0          0
KK01XA4400       9.40       0          0          0          0
KK01XA4500       9.62       0          0          0          0
KK01XA4600       9.36       0          0          0          0
KK01XA4700       9.36       0          0          0          0
KK01XA4800       12.04      0          0          0          0
KK01XA4900       10.92      0          0          0          0
KK01XA5000       10.04      0          0          0          0
KK01XA5100       9.94       0          0          0          0
KK01XA5200       8.98       0          0          0          0
KK01XA5300       9.39       0          0          0          0
KK01XA5400       9.34       0          0          0          0
KK01XA5500       9.94       0          0          0          0
KK01XA5600       10.38      0          0          0          0
KK01XA5700       10.66      0          0          0          0
KK01XA5800       10.47      0          0          0          0
KK01XA5900       9.31       0          0          0          0
KK01XA6000       9.40       0          0          0          0
KK01XA6100       9.23       0          0          0          0
KK01XA6200       8.14       0          0          0          0
KK01XA6300       9.18       0          0          0          0
KK01XA6400       8.63       0          0          0          0
KK01XA6500       8.48       0          0          0          0
KK01XA6600       8.69       0          0          0          0
KK01XA6700       6.25       0          0          0          0
KK01XA6800       5.04       0          0          0          0
KK01XA6900       7.66       0          0          0          0
KK01XA7000       7.59       0          0          0          0
KK01XA7100       11.31      0          0          0          0
KK01XA7200       11.24      0          0          0          0
KK01XA7300       5.42       0          0          0          0
KK01XA7400       6.63       0          0          0          0
KK01XA7500       6.31       0          0          0          0
KK01XA7600       5.23       0          0          0          0
KK01XA7700       4.85       0          0          0          0
KK01XA7800       6.15       0          0          0          0
KK01XA7900       6.62       0          0          0          0
KK01XA8000       6.16       0          0          0          0
KK01XA8100       6.49       0          0          0          0
KK01XA8200       7.48       0          0          0          0
KK01XA8300       7.95       0          0          0          0
KK01XA8400       11.36      0          0          0          0
KK01XA8500       9.11       0          0          0          0
KK01XA8600       8.11       0          0          0          0
KK01XA8700       8.49       0          0          0          0
KK01XA8800       9.82       0          0          0          0
KK01XA8900       13.40      0          0          0          0
KK01XA9000       20.10      0          0          0          0
KK01XA9100       32.30      0          0          0          0
KK01XA9200       38.80      0          0          0          0
KK01XB0100       9.12       0          0          0          0
KK01XB0200       7.20       0          0          0          0
KK01XB0300       6.81       0          0          0          0
KK01XB0400       6.14       0          0          0          0
KK01XB0500       7.87       0          0          0          0
KK01XB0600       6.05       0          0          0          0
KK01XB0700       6.06       0          0          0          0
KK01XB0800       6.52       0          0          0          0
KK01XB0900       6.14       0          0          0          0
KK01XB1000       5.73       0          0          0          0
KK01XB1100       7.70       0          0          0          0
KK01XB1200       8.00       0          0          0          0
KK01XB1300       8.76       0          0          0          0
KK01XB1400       8.65       0          0          0          0
KK01XB1500       8.61       0          0          0          0
KK01XB1600       8.51       0          0          0          0
KK01XB1700       8.32       0          0          0          0
KK01XB1800       8.00       0          0          0          0
KK01XB1900       8.40       0          0          0          0
KK01XB2000       8.22       0          0          0          0
KK01XB2100       7.79       0          0          0          0
KK01XB2200       7.60       0          0          0          0
KK01XB2300       7.45       0          0          0          0
KK01XB2400       7.00       0          0          0          0
KK01XB2500       7.00       0          0          0          0
KK01XB2600       7.04       0          0          0          0
KK01XB2700       6.40       0          0          0          0
KK01XB2800       7.13       0          0          0          0
KK01XB2900       7.70       0          0          0          0
KK01XB3000       8.55       0          0          0          0
KK01XB3100       8.62       0          0          0          0
KK01XB3200       8.92       0          0          0          0
KK01XB3300       8.44       0          0          0          0
KK01XB3312       9.20       0          0          0          0
KK01XB3400       7.80       0          0          0          0
KK01XB3500       7.90       0          0          0          0
KK01XB3600       7.90       0          0          0          0
KK01XB3700       7.90       0          0          0          0
KK01XB3800       8.90       0          0          0          0
KK01XB3900       8.50       0          0          0          0
KK01XB4000       8.60       0          0          0          0
KK01XB4100       8.48       0          0          0          0
KK01XB4200       7.81       0          0          0          0
KK01XB4300       6.60       0          0          0          0
KK01XB4400       5.90       0          0          0          0
KK01XB4500       4.50       0          0          0          0
KK01XB4600       5.80       0          0          0          0
KK03OO0000       0          0          0          0          0
KK03XA0100       8.49       0          0          0          0
KK03XA0200       8.91       0          0          0          0
KK03XA0300       8.76       0          0          0          0
KK03XA0400       8.88       0          0          0          0
KK03XA0500       8.67       0          0          0          0
KK03XA0600       8.49       0          0          0          0
KK03XA0700       8.43       0          0          0          0
KK03XA0800       8.27       0          0          0          0
KK03XA0900       8.39       0          0          0          0
KK03XA1000       7.86       0          0          0          0
KK03XA1100       8.06       0          0          0          0
KK03XA1200       7.90       0          0          0          0
KK03XA1300       7.93       0          0          0          0
KK03XA1400       7.69       0          0          0          0
KK03XA1500       7.39       0          0          0          0
KK03XA1600       8.54       0          0          0          0
KK06AE0100       7.00       0          0          0          0
KK06AE0200       6.83       0          0          0          0
KK06OO0000       0          0          0          0          0
KK06XA0100       5.99       0          0          0          0
KK06XA0200       6.83       0          0          0          0
KK06XA0300       7.20       0          0          0          0
KK06XA0400       6.31       0          0          0          0
KK06XA0500       6.03       0          0          0          0
KK06XA0600       6.90       0          0          0          0
KK06XA0700       4.73       0          0          0          0
KK06XA0800       6.27       0          0          0          0
KK06XA0900       4.79       0          0          0          0
KK06XA1000       5.06       0          0          0          0
KK06XA1100       5.02       0          0          0          0
KK06XA1200       6.52       0          0          0          0
KK06XA1300       7.92       0          0          0          0
KK06XA1400       10.00      0          0          0          0
KK06XA1500       8.97       0          0          0          0
KK06XA1600       8.97       0          0          0          0
KK06XA1700       9.76       0          0          0          0
KK06XA1800       7.94       0          0          0          0
KK06XA1900       6.83       0          0          0          0
KK06XA2000       4.81       0          0          0          0
KK06XA2100       5.11       0          0          0          0
KK06XA2200       6.08       0          0          0          0
KK06XA2300       9.98       0          0          0          0
KK06XA2400       12.40      0          0          0          0
KK06XA2500       8.35       0          0          0          0
KK06XA2600       7.66       0          0          0          0
KK07OO0000       0          0          0          0          0
KK07XA0100       7.80       0          0          0          0
KK07XA0200       10.00      0          0          0          0
KK07XA0300       9.63       0          0          0          0
KK07XA0400       9.58       0          0          0          0
KK07XA0500       8.62       0          0          0          0
KK07XA0600       9.40       0          0          0          0
KK07XA0700       8.29       0          0          0          0
KK07XA0800       6.72       0          0          0          0
KK07XA0900       6.24       0          0          0          0
KK07XA1000       7.16       0          0          0          0
KK07XA1100       5.06       0          0          0          0
KK07XA1200       8.20       0          0          0          0
KK07XA1900       7.39       0          0          0          0
KK07XA2000       7.95       0          0          0          0
KK07XA2100       6.11       0          0          0          0
KK07XA2200       12.78      0          0          0          0
KK07XA2300       17.00      0          0          0          0
KK07XA2400       16.88      0          0          0          0
KK07XA2500       14.68      0          0          0          0
KK07XA2510       14.80      0          0          0          0
KK07XA2511       12.50      0          0          0          0
KK07XA2512       12.50      0          0          0          0
KK07XA2513       11.53      0          0          0          0
KK07XA2514       11.30      0          0          0          0
KK07XA2515       11.70      0          0          0          0
KK07XA2900       11.80      0          0          0          0
KK07XA3000       7.00       0          0          0          0
KK07XA3100       7.00       0          0          0          0
KK07XA3200       10.30      0          0          0          0
KK07XA3300       11.50      0          0          0          0
KK07XA3400       11.60      0          0          0          0
KK07XA3500       9.90       0          0          0          0
KK07XA6700       8.60       0          0          0          0
KK07XA6701       8.60       0          0          0          0
KK07XA6702       11.80      0          0          0          0
KK07XA6703       7.60       0          0          0          0
KK07XA6704       6.20       0          0          0          0
KK07XA6705       11.60      0          0          0          0
KK07XA6706       7.20       0          0          0          0
KK07XA6707       8.10       0          0          0          0
KK07XA6708       7.30       0          0          0          0
KK07XC0100       6.60       0          0          0          0
KK07XC0200       9.20       0          0          0          0
KK07XC0300       10.30      0          0          0          0
KK07XC0400       12.40      0          0          0          0
KK07XC0500       12.50      0          0          0          0
KK07XC0600       13.20      0          0          0          0
KK07XC0700       14.50      0          0          0          0
KK07XC0800       15.60      0          0          0          0
KK07XC0900       17.60      0          0          0          0
KK07XC1000       26.20      0          0          0          0
KK07XC1100       34.70      0          0          0          0
KK07XC1200       42.20      0          0          0          0
KK07XC1300       51.20      0          0          0          0
KK07XC1400       53.40      0          0          0          0
KK07XC1500       55.70      0          0          0          0
KK07XC1600       63.20      0          0          0          0
KK07XC1700       71.20      0          0          0          0
KK07XC1800       74.00      0          0          0          0
kk0700           5.80       0          0          0          0

[CONDUITS]
;;Name           From             To               Length     Roughness  InOffset   OutOffset  InitFlow   MaxFlow
;;-------------- ---------------- ---------------- ---------- ---------- ---------- ---------- ---------- ----------
CKK01AL0100      KK01AL0100       KK01XA6600       191.83     0.0140     -5.33      -5.85      0          0
CKK01AL0200      KK01AL0200       KK01AL0100       300.00     0.0140     -4.83      -5.33      0          0
CKK01AL0300      KK01AL0300       KK01AL0200       220.25     0.0140     -4.63      -4.83      0          0
CKK01AL0400      KK01AL0400       KK01AL0300       163.00     0.0140     -4.43      -4.63      0          0
CKK01AL0500      KK01AL0500       KK01AL0400       223.20     0.0140     -3.90      -4.43      0          0
CKK01AL0600      KK01AL0600       KK01AL0500       189.15     0.0140     -3.66      -3.90      0          0
CKK01AL0700      KK01AL0700       KK01AL0600       265.14     0.0140     -3.23      -3.66      0          0
CKK01AL0800      KK01AL0800       KK01AL0700       227.00     0.0140     -2.73      -3.23      0          0
CKK01AL0900      KK01AL0900       KK01AL0800       230.00     0.0140     -2.34      -2.73      0          0
CKK01AL1000      KK01AL1000       KK01AL0900       230.00     0.0140     -1.84      -2.34      0          0
CKK01AL1100      KK01AL1100       KK01AL1000       227.83     0.0140     -1.60      -1.84      0          0
CKK01AL1200      KK01AL1200       KK01AL1100       300.00     0.0140     -0.74      -1.31      0          0
CKK01XA0200      KK01XA0200       KK01XA0100       373.38     0.0140     -15.43     -15.50     0          0
CKK01XA030       KK01XA0300       KK01XA0200       408.25     0.0140     -15.35     -15.21     0          0
CKK01XA0400      KK01XA0400       KK01XA0300       542.96     0.0140     -15.34     -15.35     0          0
CKK01XA0500      KK01XA0500       KK01XA0400       269.91     0.0140     -15.19     -15.16     0          0
CKK01XA0600      KK01XA0600       KK01XA0500       239.00     0.0140     -15.14     -15.05     0          0
CKK01XA0700      KK01XA0700       KK01XA0600       342.56     0.0140     -15.07     -15.14     0          0
CKK01XA0800      KK01XA0800       KK01XA0700       606.78     0.0140     -14.05     -15.07     0          0
CKK01XA0900      KK01XA0900       KK01XA0800       558.62     0.0140     -14.84     -14.05     0          0
CKK01XA1000      KK01XA1000       KK01XA0900       18.31      0.0140     -14.08     -14.84     0          0
CKK01XA1100      KK01XA1100       KK01XA1000       443.07     0.0140     -13.85     -14.08     0          0
CKK01XA1200      KK01XA1200       KK01XA1100       456.93     0.0140     -13.68     -13.85     0          0
CKK01XA1300      KK01XA1300       KK01XA1200       297.07     0.0140     -13.57     -13.68     0          0
CKK01XA1400      KK01XA1400       KK01XA1300       177.00     0.0140     -13.51     -13.04     0          0
CKK01XA1500      KK01XA1500       KK01XA1400       85.00      0.0140     -13.47     -13.51     0          0
CKK01XA1600      KK01XA1600       KK01XA1500       47.42      0.0140     -13.46     -13.47     0          0
CKK01XA1700      KK01XA1700       KK01XA1600       58.46      0.0140     -13.43     -13.45     0          0
CKK01XA1800      KK01XA1800       KK01XA1700       101.99     0.0140     -13.39     -13.43     0          0
CKK01XA1900      KK01XA1900       KK01XA1800       198.41     0.0140     -13.32     -13.39     0          0
CKK01XA2000      KK01XA2000       KK01XA1900       217.22     0.0140     -11.54     -11.82     0          0
CKK01XA2100      KK01XA2100       KK01XA2000       117.72     0.0140     -11.57     -11.54     0          0
CKK01XA2200      KK01XA2200       KK01XA2100       284.43     0.0140     -11.33     -11.57     0          0
CKK01XA2300      KK01XA2300       KK01XA2200       177.00     0.0140     -12.48     -11.25     0          0
CKK01XA2400      KK01XA2400       KK01XA2300       220.79     0.0140     -11.35     -11.45     0          0
CKK01XA2500      KK01XA2500       KK01XA2400       204.59     0.0140     -9.88      -11.35     0          0
CKK01XA2600      KK01XA2600       KK01XA2500       292.49     0.0140     -11.00     -9.88      0          0
CKK01XA2700      KK01XA2700       KK01XA2600       96.72      0.0140     -10.60     -11.00     0          0
CKK01XA2800      KK01XA2800       KK01XA2700       275.23     0.0140     -10.89     -10.60     0          0
CKK01XA2900      KK01XA2900       KK01XA2800       149.30     0.0140     -10.61     -10.89     0          0
CKK01XA3000      KK01XA3000       KK01XA2900       55.00      0.0140     -10.59     -10.61     0          0
CKK01XA3100      KK01XA3100       KK01XA3000       181.85     0.0140     -10.55     -10.45     0          0
CKK01XA3200      KK01XA3200       KK01XA3100       164.60     0.0140     -10.65     -10.55     0          0
CKK01XA3300      KK01XA3300       KK01XA3200       232.89     0.0140     -10.56     -10.50     0          0
CKK01XA3400      KK01XA3400       KK01XA3300       209.16     0.0140     -10.37     -10.56     0          0
CKK01XA3500      KK01XA3500       KK01XA3400       86.65      0.0140     -13.06     -10.33     0          0
CKK01XA3600      KK01XA3600       KK01XA3500       338.85     0.0140     -10.14     -10.21     0          0
CKK01XA3700      KK01XA3700       KK01XA3600       157.38     0.0140     -10.04     -10.04     0          0
CKK01XA3800      KK01XA3800       KK01XA3700       216.02     0.0140     -9.88      -10.01     0          0
CKK01XA3900      KK01XA3900       KK01XA3800       74.55      0.0140     -9.79      -9.80      0          0
CKK01XA4000      KK01XA4000       KK01XA3900       246.10     0.0140     -9.63      -9.79      0          0
CKK01XA4100      KK01XA4100       KK01XA4000       200.85     0.0140     -9.87      -9.63      0          0
CKK01XA4200      KK01XA4200       KK01XA4100       245.00     0.0140     -9.51      -9.81      0          0
CKK01XA4300      KK01XA4300       KK01XA4200       180.75     0.0140     -9.39      -9.41      0          0
CKK01XA4400      KK01XA4400       KK01XA4300       142.00     0.0140     -9.38      -8.97      0          0
CKK01XA4500      KK01XA4500       KK01XA4400       80.45      0.0140     -9.31      -9.38      0          0
CKK01XA4600      KK01XA4600       KK01XA4500       234.61     0.0140     -9.08      -9.29      0          0
CKK01XA4700      KK01XA4700       KK01XA4600       157.25     0.0140     -9.26      -9.06      0          0
CKK01XA480       KK01XA4800       KK01XA4700       291.87     0.0140     -8.80      -9.25      0          0
CKK01XA4900      KK01XA4900       KK01XA4800       135.22     0.0140     -8.93      -8.38      0          0
CKK01XA5000      KK01XA5000       KK01XA4900       185.91     0.0140     -8.84      -8.93      0          0
CKK01XA5100      KK01XA5100       KK01XA5000       119.36     0.0140     -8.80      -8.49      0          0
CKK01XA5200      ?                ?                216.25     0.0140     -8.56      -8.58      0          0
CKK01XA5300      KK01XA5300       KK01XA5200       179.70     0.0140     -8.33      -8.55      0          0
CKK01XA5400      KK01XA5400       KK01XA5300       60.53      0.0140     -8.30      -8.23      0          0
CKK01XA5500      KK01XA5500       KK01XA5400       179.74     0.0140     -8.35      -8.19      0          0
CKK01XA5600      KK01XA5600       KK01XA5500       254.04     0.0140     -8.40      -8.01      0          0
CKK01XA5700      KK01XA5700       KK01XA5600       284.26     0.0140     -7.88      -8.26      0          0
CKK01XA5800      KK01XA5800       KK01XA5700       45.60      0.0140     -7.74      -7.84      0          0
CKK01XA5900      KK01XA5900       KK01XA5800       312.52     0.0140     -7.79      -7.73      0          0
CKK01XA6000      KK01XA6000       KK01XA5900       470.31     0.0140     -7.50      -7.77      0          0
CKK01XA6100      KK01XA6100       KK01XA6000       133.89     0.0140     -7.46      -7.50      0          0
CKK01XA6200      KK01XA6200       KK01XA6100       312.27     0.0140     -7.25      -7.29      0          0
CKK01XA6300      KK01XA6300       KK01XA6200       312.68     0.0140     -6.95      -7.24      0          0
CKK01XA6400      KK01XA6400       KK01XA6300       209.88     0.0140     -7.19      -6.84      0          0
CKK01XA6500      KK01XA6500       KK01XA6400       112.67     0.0140     -6.85      -6.89      0          0
CKK01XA6600      KK01XA6600       KK01XA6500       331.59     0.0140     -6.93      -6.85      0          0
CKK01XA6700      KK01XA6700       KK01XA6600       175.00     0.0140     -5.55      -5.73      0          0
CKK01XA6800      KK01XA6800       KK01XA6700       188.00     0.0140     -5.36      -5.55      0          0
CKK01XA6900      KK01XA6900       KK01XA6800       224.84     0.0140     -5.14      -5.36      0          0
CKK01XA7000      KK01XA7000       KK01XA6900       129.16     0.0140     -5.01      -5.14      0          0
CKK01XA7100      KK01XA7100       KK01XA7000       117.21     0.0140     -4.89      -5.01      0          0
CKK01XA7200      KK01XA7200       KK01XA7100       289.87     0.0140     -4.56      -4.89      0          0
CKK01XA7300      KK01XA7300       KK01XA7200       182.00     0.0140     -4.38      -4.56      0          0
CKK01XA7400      KK01XA7400       KK01XA7300       279.64     0.0140     -1.97      -4.37      0          0
CKK01XA7500      KK01XA7500       KK01XA7400       66.41      0.0140     -1.89      -1.96      0          0
CKK01XA7600      KK01XA7600       KK01XA7500       124.43     0.0140     -1.77      -1.89      0          0
CKK01XA7700      KK01XA7700       KK01XA7600       120.40     0.0140     -1.65      -1.77      0          0
CKK01XA7800      KK01XA7800       KK01XA7700       297.00     0.0140     -1.35      -1.65      0          0
CKK01XA7900      KK01XA7900       KK01XA7800       128.00     0.0140     -0.78      -1.10      0          0
CKK01XA8000      KK01XA8000       KK01XA7900       95.27      0.0140     -0.54      -0.78      0          0
CKK01XA8100      KK01XA8100       KK01XA8000       133.73     0.0140     -0.21      -0.54      0          0
CKK01XA8200      KK01XA8200       KK01XA8100       117.00     0.0140     0.08       -0.21      0          0
CKK01XA8300      KK01XA8300       KK01XA8200       69.00      0.0140     0.25       0.08       0          0
CKK01XA8400      KK01XA8400       KK01XA8300       190.00     0.0140     0.73       0.25       0          0
CKK01XA8500      KK01XA8500       KK01XA8400       150.12     0.0140     1.11       0.73       0          0
CKK01XA8600      KK01XA8600       KK01XA8500       200.00     0.0140     1.61       1.11       0          0
CKK01XA8700      KK01XA8700       KK01XA8600       75.00      0.0140     1.79       1.61       0          0
CKK01XA8800      KK01XA8800       KK01XA8700       68.00      0.0140     3.82       2.46       0          0
CKK01XA8900      KK01XA8900       KK01XA8800       142.00     0.0140     7.00       3.82       0          0
CKK01XA9000      KK01XA9000       KK01XA8900       88.00      0.0140     14.00      7.00       0          0
CKK01XA9100      KK01XA9100       KK01XA9000       230.00     0.0140     26.00      14.00      0          0
CKK01XA9200      KK01XA9200       KK01XA9100       204.00     0.0140     32.50      26.00      0          0
CKK01XB0100      KK01XB0100       KK01XA1900       111.00     0.0140     -9.68      -12.57     0          0
CKK01XB0200      KK01XB0200       KK01XB0100       83.87      0.0140     -9.57      -9.68      0          0
CKK01XB0300      KK01XB0300       KK01XB0200       486.00     0.0140     -9.49      -9.57      0          0
CKK01XB0400      KK01XB0400       KK01XB0300       340.00     0.0140     -9.26      -9.49      0          0
CKK01XB050       KK01XB0500       KK01XB0400       362.00     0.0140     -9.13      -9.26      0          0
CKK01XB0600      KK01XB0600       KK01XB0500       544.00     0.0140     -8.95      -9.13      0          0
CKK01XB0700      KK01XB0700       KK01XB0600       360.00     0.0140     -8.64      -8.95      0          0
CKK01XB0800      KK01XB0800       KK01XB0700       461.08     0.0140     -8.48      -8.64      0          0
CKK01XB0900      KK01XB0900       KK01XB0800       594.17     0.0140     -8.26      -8.48      0          0
CKK01XB1000      KK01XB1000       KK01XB0900       546.03     0.0140     -8.27      -8.26      0          0
CKK01XB1100      KK01XB1100       KK01XB1000       170.73     0.0140     -8.00      -7.98      0          0
CKK01XB1200      KK01XB1200       KK01XB1100       326.24     0.0140     -7.91      -8.00      0          0
CKK01XB1300      KK01XB1300       KK01XB1200       176.50     0.0140     -7.74      -7.91      0          0
CKK01XB1400      KK01XB1400       KK01XB1300       69.78      0.0140     -7.65      -7.74      0          0
CKK01XB1500      KK01XB1500       KK01XB1400       63.72      0.0140     -7.61      -7.65      0          0