;; SWMM5 .inp converted from XPSWMM .xp file
;; Generated by XPSWMM Card Reader
;; Source format: XP_CARD | Original title: Transport Block - Grand Rapids

[TITLE]
;;Project Title/Notes
Transport Block - Grand Rapids

[OPTIONS]
FLOW_UNITS           CFS
INFILTRATION         HORTON
FLOW_ROUTING         DYNWAVE
LINK_OFFSETS         DEPTH
MIN_SLOPE            0.0
ALLOW_PONDING        NO
SKIP_STEADY_STATE    NO
ROUTING_STEP         00:00:15
VARIABLE_STEP        0.75
INERTIAL_DAMPING     FULL
NORMAL_FLOW_LIMITED  BOTH
MAX_TRIALS           50
HEAD_TOLERANCE       0.0033

[JUNCTIONS]
;;Name           Elev       MaxDepth   InitDepth  SurDepth   Aponded
;;-------------- ---------- ---------- ---------- ---------- ----------
523              94.00      0          0          0          0
522              100.96     0          0          0          0
521              105.64     0          0          0          0
518              140.00     0          0          0          0
508              114.97     0          0          0          0
513              149.00     0          0          0          0
517              145.00     0          0          0          0
505              134.54     0          0          0          0
502              155.86     0          0          0          0
501              180.40     0          0          0          0
503              155.86     0          0          0          0
504              150.48     0          0          0          0
506              146.00     0          0          0          0
507              145.00     0          0          0          0
509              110.18     0          0          0          0
510              110.18     0          0          0          0
511              108.75     0          0          0          0
512              104.22     0          0          0          0
514              148.00     0          0          0          0
515              147.00     0          0          0          0
516              146.50     0          0          0          0
519              139.25     0          0          0          0
520              126.83     0          0          0          0

[CONDUITS]
;;Name           From             To               Length     Roughness  InOffset   OutOffset  InitFlow   MaxFlow
;;-------------- ---------------- ---------------- ---------- ---------- ---------- ---------- ---------- ----------
101              501              502              520.00     0          171.40     148.52     0          0
103              503              504              680.00     0          148.36     137.48     0          0
104              504              505              830.00     0          137.48     122.54     0          0
105              505              506              660.00     0          122.54     120.56     0          0
106              506              507              110.00     0.0130     120.56     120.07     0          0
107              507              508              830.00     0          120.07     103.47     0          0
108              508              509              520.00     0          103.47     100.35     0          0
109              509              510              37.00      0.0130     100.35     100.09     0          0
110              510              511              445.00     0          100.09     96.75      0          0
111              511              512              605.00     0          96.75      92.22      0          0
112              513              514              165.00     0.0130     141.42     140.76     0          0
113              514              515              860.00     0.0130     140.76     136.98     0          0
114              515              516              385.00     0.0130     136.98     134.56     0          0
115              516              517              290.00     0.0130     134.56     133.10     0          0
116              517              518              400.00     0.0130     133.10     131.10     0          0
117              518              519              85.00      0.0130     131.10     130.25     0          0
118              519              520              995.00     0          130.25     114.33     0          0
119              520              521              1100.00    0          114.33     95.64      0          0
120              521              512              570.00     0          95.64      92.22      0          0
121              512              522              465.00     0          92.22      88.96      0          0
122              522              523              660.00     0          88.96      85.00      0          0
102pip           102ovr           ?                80.00      0.0130     148.52     148.36     0          0

[XSECTIONS]
;;Link           Shape        Geom1      Geom2      Geom3      Geom4      Barrels
;;-------------- ------------ ---------- ---------- ---------- ---------- ----------
101              IRREGULAR    0          0          0          0          101
103              IRREGULAR    0          0          0          0          103
104              IRREGULAR    0          0          0          0          104
105              IRREGULAR    0          0          0          0          105
106              CIRCULAR     3.00       0          0          0          1
107              IRREGULAR    0          0          0          0          107
108              IRREGULAR    0          0          0          0          108
109              CIRCULAR     5.83       0          0          0          1
110              IRREGULAR    0          0          0          0          110
111              IRREGULAR    0          0          0          0          111
112              CIRCULAR     3.00       0          0          0          1
113              CIRCULAR     3.00       0          0          0          1
114              CIRCULAR     3.50       0          0          0          1
115              CIRCULAR     3.50       0          0          0          1
116              CIRCULAR     3.50       0          0          0          1
117              CIRCULAR     3.50       0          0          0          1
118              IRREGULAR    0          0          0          0          118
119              IRREGULAR    0          0          0          0          119
120              IRREGULAR    0          0          0          0          120
121              IRREGULAR    0          0          0          0          121
122              IRREGULAR    0          0          0          0          122
102pip           CIRCULAR     3.50       0          0          0          1

[LOSSES]
;;Link           Inlet      Outlet     Average    Flap Gate
;;-------------- ---------- ---------- ---------- ----------
101              0          0          0          NO
103              0          0          0          NO
104              0          0          0          NO
105              0          0          0          NO
106              0          0          0          NO
107              0          0          0          NO
108              0          0          0          NO
109              0          0          0          NO
110              0          0          0          NO
111              0          0          0          NO
112              0          0          0          NO
113              0          0          0          NO
114              0          0          0          NO
115              0          0          0          NO
116              0          0          0          NO
117              0          0          0          NO
118              0          0          0          NO
119              0          0          0          NO
120              0          0          0          NO
121              0          0          0          NO
122              0          0          0          NO
102pip           0          0          0          NO

[COORDINATES]
;;Node           X-Coord            Y-Coord
;;-------------- ------------------ ------------------
523              711.34             35.05             
522              688.30             33.37             
521              643.35             -0.09             
518              575.15             -22.20            
508              590.33             20.74             
513              520.16             -63.12            
517              557.43             -22.69            
505              527.57             32.53             
502              476.41             35.47             
501              450.33             35.47             
503              481.76             33.66             
504              502.92             33.44             
506              553.94             29.16             
507              564.24             28.32             
509              612.35             21.58             
510              621.19             24.06             
511              644.24             28.27             
512              667.28             31.69             
514              519.71             -53.95            
515              556.36             -55.01            
516              556.36             -37.54            
519              589.05             -22.60            
520              616.85             -22.80            

[MAP]
DIMENSIONS 450.33 -63.12 711.34 35.47
Units      None

[REPORT]
INPUT            YES
SUBCATCHMENTS    ALL
NODES            ALL
LINKS            ALL



