;; SWMM5 .inp converted from XPSWMM .xp file
;; Generated by XPSWMM Card Reader
;; Source format: XP_CARD | Original title: Phase2

[TITLE]
;;Project Title/Notes
Phase2

[OPTIONS]
FLOW_UNITS           CMS
INFILTRATION         HORTON
FLOW_ROUTING         DYNWAVE
LINK_OFFSETS         DEPTH
MIN_SLOPE            0.0
ALLOW_PONDING        NO
SKIP_STEADY_STATE    NO
ROUTING_STEP         00:00:10
VARIABLE_STEP        0.75
INERTIAL_DAMPING     PARTIAL
NORMAL_FLOW_LIMITED  BOTH
MAX_TRIALS           50

[JUNCTIONS]
;;Name           Elev       MaxDepth   InitDepth  SurDepth   Aponded
;;-------------- ---------- ---------- ---------- ---------- ----------
03010030         184.47     0          0          0          0
03010020         184.46     0          0          0          0
03010010         184.38     0          0          0          0
03030100         183.48     0          0          0          0
03030090         182.81     0          0          0          0
03030080         182.30     0          0          0          0
03030050         182.00     0          0          0          0
03030030         181.28     0          0          0          0
03030020         181.28     0          0          0          0
03030010         180.80     0          0          0          0
02020050         180.82     0          0          0          0
02020040         181.11     0          0          0          0
02020030         181.14     0          0          0          0
02020020         181.11     0          0          0          0
02020010         181.32     0          0          0          0
02010030         181.06     0          0          0          0
02010020         181.63     0          0          0          0
02010010         181.18     0          0          0          0
03020030         183.32     0          0          0          0
03020020         183.71     0          0          0          0
04020100         185.91     0          0          0          0
04020090         185.51     0          0          0          0
04020080         184.63     0          0          0          0
04020070         183.73     0          0          0          0
04020060         183.66     0          0          0          0
04020050         183.41     0          0          0          0
04020045         183.33     0          0          0          0
04020030         182.69     0          0          0          0
04020020         182.61     0          0          0          0
04050040         181.47     0          0          0          0
04050030         181.91     0          0          0          0
04050020         182.69     0          0          0          0
04050010         182.09     0          0          0          0
04050005         182.07     0          0          0          0
02010180         181.72     0          0          0          0
02010170         181.24     0          0          0          0
02010160         179.81     0          0          0          0
02010150         180.38     0          0          0          0
02010140         181.28     0          0          0          0
02010130         181.22     0          0          0          0
02010120         180.79     0          0          0          0
04020110         182.98     0          0          0          0
04030010         182.93     0          0          0          0
06010120         181.30     0          0          0          0
06010110         181.10     0          0          0          0
06010100         180.79     0          0          0          0
06010090         180.24     0          0          0          0
06010080         179.71     0          0          0          0
06010070         180.09     0          0          0          0
06010060         179.61     0          0          0          0
06010050         180.13     0          0          0          0
06010040         180.63     0          0          0          0
06010030         180.42     0          0          0          0
06010020         180.38     0          0          0          0
06010005         179.69     0          0          0          0
06030030         179.18     0          0          0          0
06030020         181.00     0          0          0          0
06030010         181.00     0          0          0          0
12010030         185.00     0          0          0          0
12010020         184.99     0          0          0          0
12010010         183.42     0          0          0          0
19010150         183.39     0          0          0          0
13010459         194.71     0          0          0          0
13010449         194.50     0          0          0          0
13010440         194.39     0          0          0          0
OV27             192.00     0          0          0          0
13010430         194.35     0          0          0          0
13010420         195.17     0          0          0          0
13010410         195.04     0          0          0          0
13010400         194.67     0          0          0          0
13010390         192.00     0          0          0          0
13010380         192.45     0          0          0          0
13010360         190.20     0          0          0          0
13010355         190.14     0          0          0          0
13010350         190.30     0          0          0          0
13010110         189.99     0          0          0          0
13010690         191.89     0          0          0          0
13010100         192.31     0          0          0          0
13010090         192.71     0          0          0          0
13010080         191.27     0          0          0          0
13010070         191.51     0          0          0          0
13010060         191.58     0          0          0          0
13010050         190.26     0          0          0          0
13010040         192.53     0          0          0          0
13010030         192.50     0          0          0          0
13010020         192.14     0          0          0          0
13010010         189.98     0          0          0          0
17010090         189.12     0          0          0          0
17010095         188.10     0          0          0          0
17010085         188.10     0          0          0          0
17010080         188.02     0          0          0          0
17010070         187.64     0          0          0          0
17010075         187.58     0          0          0          0
17010060         187.04     0          0          0          0
17010050         187.19     0          0          0          0
17010030         185.26     0          0          0          0
19010140         182.76     0          0          0          0
19010130         182.07     0          0          0          0
19010120         181.86     0          0          0          0
19010110         181.86     0          0          0          0
19010100         181.66     0          0          0          0
19010090         181.12     0          0          0          0
19010080         180.51     0          0          0          0
19010070         179.08     0          0          0          0
19010060         179.62     0          0          0          0
19010050         177.97     0          0          0          0
19010040         177.85     0          0          0          0
19010030         177.11     0          0          0          0
19010020         176.75     0          0          0          0
19010010         176.37     0          0          0          0
19010005         176.45     0          0          0          0
11020005         160.10     0          0          0          0
BenderWW         160.35     0          0          0          0
18011170         186.10     0          0          0          0
18011160         185.03     0          0          0          0
18011150         184.69     0          0          0          0
18011140         183.99     0          0          0          0
18011130         182.73     0          0          0          0
18020180         181.77     0          0          0          0
18020760         181.88     0          0          0          0
18020770         179.18     0          0          0          0
18020780         178.30     0          0          0          0
18020790         177.96     0          0          0          0
18020810         176.88     0          0          0          0
CentChamb        176.46     0          0          0          0
18010010         175.06     0          0          0          0
18020005         167.68     0          0          0          0
ParkStWW         168.90     0          0          0          0
MuddyWW          162.50     0          0          0          0
14010180         190.90     0          0          0          0
14010150         190.20     0          0          0          0
14010140         189.90     0          0          0          0
14010110         190.00     0          0          0          0
14010090         189.50     0          0          0          0
14010030         188.00     0          0          0          0
15010010         191.71     0          0          0          0
DorchestWW       184.70     0          0          0          0
15010200         195.18     0          0          0          0
15010195         195.63     0          0          0          0
15010190         195.63     0          0          0          0
15010185         196.09     0          0          0          0
15010180         196.36     0          0          0          0
15010170         196.46     0          0          0          0
15010175         195.98     0          0          0          0
15010160         195.42     0          0          0          0
15010150         195.00     0          0          0          0
15010140         197.64     0          0          0          0
15010130         196.30     0          0          0          0
15010120         195.25     0          0          0          0
15010110         194.19     0          0          0          0
15010100         194.52     0          0          0          0
15010090         194.65     0          0          0          0
15010080         193.97     0          0          0          0
15010070         193.20     0          0          0          0
15010060         193.25     0          0          0          0
15010050         193.59     0          0          0          0
15010040         193.61     0          0          0          0
15010030         193.31     0          0          0          0
15010025         192.83     0          0          0          0
15010020         193.89     0          0          0          0
26010300         192.30     0          0          0          0
26010280         191.70     0          0          0          0
26010265         193.60     0          0          0          0
26010260         193.50     0          0          0          0
26010250         191.90     0          0          0          0
26010240         190.70     0          0          0          0
26010230         190.50     0          0          0          0
26010220         190.80     0          0          0          0
26010210         190.60     0          0          0          0
26010190         188.80     0          0          0          0
26010180         187.70     0          0          0          0
26010170         187.20     0          0          0          0
26010160         186.40     0          0          0          0
26010150         185.10     0          0          0          0
26010140         185.00     0          0          0          0
26010130         183.00     0          0          0          0
26010120         182.60     0          0          0          0
26010110         182.30     0          0          0          0
26010100         182.50     0          0          0          0
26010090         182.00     0          0          0          0
26010080         181.10     0          0          0          0
26010070         180.50     0          0          0          0
26010060         178.50     0          0          0          0
26010050         179.90     0          0          0          0
26010040         178.00     0          0          0          0
26010030         177.60     0          0          0          0
26010020         176.00     0          0          0          0
26010010         176.00     0          0          0          0
20010050         184.40     0          0          0          0
20010030         183.68     0          0          0          0
23020100         195.11     0          0          0          0
23020090         195.16     0          0          0          0
23020080         194.91     0          0          0          0
23020070         194.80     0          0          0          0
23020060         194.68     0          0          0          0
23020050         194.57     0          0          0          0
23020040         194.32     0          0          0          0
23020030         194.21     0          0          0          0
23020020         194.49     0          0          0          0
23020010         194.78     0          0          0          0
23010040         194.24     0          0          0          0
23010030         193.93     0          0          0          0
23010020         190.96     0          0          0          0
23010010         191.92     0          0          0          0
22010200         186.54     0          0          0          0
22010190         185.52     0          0          0          0
22010160         185.50     0          0          0          0
22010140         183.44     0          0          0          0
22010130         180.20     0          0          0          0
22010120         181.21     0          0          0          0
22010110         178.38     0          0          0          0
22010100         178.33     0          0          0          0
02020045         181.30     0          0          0          0
02020035         180.80     0          0          0          0
02010005         175.23     0          0          0          0
02010003         175.23     0          0          0          0
HighLiftWW       175.23     0          0          0          0
OV20             175.23     0          0          0          0
14020130         189.50     0          0          0          0
14020060         191.00     0          0          0          0
14020040         190.00     0          0          0          0
15040250         194.30     0          0          0          0
15040020         193.10     0          0          0          0
OV8              167.30     0          0          0          0
150030           175.42     0          0          0          0
150110           175.13     0          0          0          0
150150           175.72     0          0          0          0
160006           173.65     0          0          0          0
160020           173.15     0          0          0          0
160035           172.81     0          0          0          0
160050           173.33     0          0          0          0
160060           173.19     0          0          0          0
160080           173.50     0          0          0          0
160090           174.56     0          0          0          0
150002           175.45     0          0          0          0
150020           175.25     0          0          0          0
FrontStOut       172.50     0          0          0          0
150050           175.04     0          0          0          0
gDrainOUT        175.00     0          0          0          0
FrontD2          174.02     0          0          0          0
Ein              177.34     0          0          0          0
OV19             181.55     0          0          0          0
OV12             188.66     0          0          0          0
P10Area          187.00     0          0          0          0
LundyWW          195.00     0          0          0          0
P4Area           187.00     0          0          0          0
KalarWW          182.00     0          0          0          0
P7Area           192.00     0          0          0          0
TaroWW           192.00     0          0          0          0
P8Area           192.00     0          0          0          0
RollingWW        193.00     0          0          0          0
P11Area          192.00     0          0          0          0
MeadowWW         196.00     0          0          0          0
P16Area          191.00     0          0          0          0
RoyalWW          195.00     0          0          0          0
P15Area          183.00     0          0          0          0
DrummondWW       179.50     0          0          0          0
SenecaWW         175.00     0          0          0          0
CentralWW        175.00     0          0          0          0
Splitter         175.50     0          0          0          0
1029             172.00     0          0          0          0
1031             170.00     0          0          0          0
1033             170.00     0          0          0          0
MuddyT           163.90     0          0          0          0
OV6              165.00     0          0          0          0
ServiceBld       177.75     0          0          0          0
OV2              179.00     0          0          0          0
MH4a             176.83     0          0          0          0
MH4b             176.83     0          0          0          0
WWTP             175.00     0          0          0          0
OV3              191.00     0          0          0          0
OV1              191.00     0          0          0          0
OV7              193.00     0          0          0          0
OV16             192.00     0          0          0          0
OV10             192.00     0          0          0          0
OV9              179.50     0          0          0          0
OV11             184.70     0          0          0          0
OV17             160.10     0          0          0          0
OV15             174.00     0          0          0          0

[STORAGE]
;;Name           Elev       MaxDepth   InitDepth  Shape      Curve/Params
;;-------------- ---------- ---------- ---------- ---------- ----------
03010040         184.70     0          0          FUNCTIONAL 25.00 0          0
03030040         181.50     0          0          FUNCTIONAL 25.00 0          0
03020040         183.70     0          0          FUNCTIONAL 25.00 0          0
09020110         188.31     0          0          FUNCTIONAL 25.00 0          0
06010130         181.70     0          0          FUNCTIONAL 25.00 0          0
06030040         180.90     0          0          FUNCTIONAL 25.00 0          0
13010469         194.82     0          0          FUNCTIONAL 25.00 0          0
17010065         187.35     0          0          FUNCTIONAL 25.00 0          0
17010040         187.05     0          0          FUNCTIONAL 90.00 0          0
11010010         159.52     0          0          FUNCTIONAL 25.00 0          0
18011180         185.78     -0.03      0          FUNCTIONAL 25.00 0          0
18011120         182.01     0          0          FUNCTIONAL 25.00 0          0
18020800         177.75     0          0          FUNCTIONAL 25.00 0          0
18010970         175.89     0          0          FUNCTIONAL 25.00 0          0
18020020         174.03     0          0          FUNCTIONAL 25.00 0          0
SA-18-03         161.00     0          0          FUNCTIONAL 25.00 0          0
26010290         191.90     0          0          FUNCTIONAL 100.00 0          0
DropSh1          184.50     0          0          FUNCTIONAL 900.00 0          0
HT150001         175.71     0          0          FUNCTIONAL 25.00 0          0
HT150002         175.71     0          0          FUNCTIONAL 25.00 0          0
110010           173.13     0          0          FUNCTIONAL 25.00 0          0
150005           175.46     0          0          FUNCTIONAL 25.00 0          0
150040           175.19     0          0          FUNCTIONAL 25.00 0          0
150060           175.46     0          0          FUNCTIONAL 25.00 0          0
150070           175.65     0          0          FUNCTIONAL 25.00 0          0
150080           175.62     0          0          FUNCTIONAL 25.00 0          0
150100           175.19     0          0          FUNCTIONAL 25.00 0          0
150120           175.53     0          0          FUNCTIONAL 25.00 0          0
150130           175.64     0          0          FUNCTIONAL 25.00 0          0
150140           175.51     0          0          FUNCTIONAL 25.00 0          0
160004           172.62     0          0          FUNCTIONAL 25.00 0          0
160008           172.94     0          1.34       FUNCTIONAL 25.00 0          0
160010           172.69     0          0.76       FUNCTIONAL 25.00 0          0
160015           172.31     0          0          FUNCTIONAL 25.00 0          0
160030           172.54     0.00       0          FUNCTIONAL 25.00 0          0
160032           172.20     -0.00      0          FUNCTIONAL 25.00 0          0
160040           172.57     0.00       0          FUNCTIONAL 25.00 0          0
160070           172.83     0          0          FUNCTIONAL 25.00 0          0
160110           174.40     0.00       0          FUNCTIONAL 25.00 0          0
160115           174.56     0.00       0          FUNCTIONAL 25.00 0          0
170020           176.53     -0.91      0          FUNCTIONAL 25.00 0          0
HT160016         172.91     0          0          FUNCTIONAL 25.00 0          0
150010           175.26     0          0          FUNCTIONAL 25.00 0          0
HT150008         175.22     0          0          FUNCTIONAL 25.00 0          0
HT150007         173.59     0          0          FUNCTIONAL 25.00 0          0
FrontStPS        173.13     0          0          FUNCTIONAL 7.44 0          0
LowLiftWW        173.45     0          0          FUNCTIONAL 41.20 0          0
HT160018         172.30     0          0          FUNCTIONAL 25.00 0          0
HT1050068        175.18     -3.68      0          FUNCTIONAL 25.00 0          0
HT01050042       174.80     0          0          FUNCTIONAL 25.00 0          0

[CONDUITS]
;;Name           From             To               Length     Roughness  InOffset   OutOffset  InitFlow   MaxFlow
;;-------------- ---------------- ---------------- ---------- ---------- ---------- ---------- ---------- ----------
CA00400030       03010040         03010030         38.25      0.0130     181.69     181.38     0          0
CA00300020       03010030         03010020         76.65      0.0130     181.36     181.03     0          0
CA00200010       03010020         03010010         9.59       0.0130     181.01     180.91     0          0
CA00100100       03010010         03030100         125.35     0.0130     180.95     179.99     0          0
CC01000090       03030100         03030090         303.85     0.0130     179.76     179.04     0          0
CC00900080       03030090         03030080         195.07     0.0130     179.01     178.80     0          0
CC00500040       03030050         03030040         200.00     0.0130     178.40     178.00     0          0
CC00300040       03030040         03030030         150.00     0.0130     177.20     176.80     0          0
CC00200030       03030030         03030020         150.00     0.0130     176.80     176.50     0          0
CC00100020       03030020         03030010         250.00     0.0130     176.35     175.47     0          0
BB00500010       03030010         02020050         72.00      0.0130     175.47     175.29     0          0
BB00500045       02020050         02020045         195.60     0.0130     175.29     174.80     0          0
BB00450040       02020045         02020040         150.00     0.0130     174.80     174.60     0          0
BB00400035       02020040         02020035         164.28     0.0130     174.46     174.14     0          0
BB00350030       02020035         02020030         171.75     0.0130     174.14     173.95     0          0
BB00300020       02020030         02020020         166.79     0.0130     173.95     173.84     0          0
BB00200010       02020020         02020010         177.46     0.0130     173.78     173.45     0          0
BB00100030       02020010         02010030         80.81      0.0130     173.45     173.34     0          0
BA00300020       02010030         02010020         214.19     0.0130     173.29     172.80     0          0
BA00200010       02010020         02010010         238.20     0.0130     172.80     172.63     0          0
BA00100005       02010010         02010005         34.60      0.0130     172.63     172.47     0          0
BA00050003       02010005         02010003         34.47      0.0130     172.47     172.42     0          0
BA0003HLPS       02010003         HighLiftWW       77.00      0.0130     172.42     172.18     0          0
CB00400030       03020040         03020030         114.74     0.0130     180.79     180.28     0          0
CB00300020       03020030         03020020         131.19     0.0130     180.27     180.26     0          0
IB01100100       09020110         04020100         141.79     0.0130     183.76     182.60     0          0
DB01000090       04020100         04020090         101.99     0.0130     182.54     181.78     0          0
DB00900080       04020090         04020080         102.35     0.0130     181.76     181.01     0          0
DB00800070       04020080         04020070         121.53     0.0130     181.00     180.39     0          0
DB00700060       04020070         04020060         18.84      0.0130     180.41     179.26     0          0
DB00600050       04020060         04020050         82.51      0.0130     179.23     178.74     0          0
DB00500045       04020050         04020045         19.59      0.0130     178.75     178.67     0          0
DB00450030       04020045         04020030         103.83     0.0130     178.67     178.29     0          0
DB00300020       04020030         04020020         106.01     0.0130     178.29     177.81     0          0
DB00200040       04020020         04050040         253.25     0.0130     177.81     177.01     0          0
DE00400030       04050040         04050030         127.34     0.0130     177.03     176.64     0          0
DE00300020       04050030         04050020         62.44      0.0130     176.64     176.43     0          0
DE00200010       04050020         04050010         26.56      0.0130     176.44     175.53     0          0
DE00100005       04050010         04050005         2.33       0.0130     175.50     175.32     0          0
DE00050180       04050005         02010180         12.55      0.0130     175.12     175.27     0          0
BA01800170       02010180         02010170         111.65     0.0130     175.24     174.95     0          0
BA01700160       02010170         02010160         111.81     0.0130     174.90     174.80     0          0
BA01600150       02010160         02010150         110.54     0.0130     174.70     174.53     0          0
BA01500140       02010150         02010140         98.34      0.0130     174.53     174.38     0          0
BA01400130       02010140         02010130         98.69      0.0130     174.32     174.22     0          0
BA01300120       02010130         02010120         97.44      0.0130     174.12     174.09     0          0
BA01200010       02010120         02010010         98.54      0.0130     174.03     173.19     0          0
DB01100060       04020110         04020060         113.95     0.0130     178.82     178.81     0          0
DC00100020       04030010         04020020         91.61      0.0130     178.06     177.88     0          0
FA01300120       06010130         06010120         109.26     0.0130     175.23     174.97     0          0
FA01200110       06010120         06010110         40.20      0.0130     174.94     174.93     0          0
FA01100100       06010110         06010100         64.00      0.0130     174.94     174.84     0          0
FA01000090       06010100         06010090         107.52     0.0130     174.84     174.72     0          0
FA00900080       06010090         06010080         109.01     0.0130     174.64     174.49     0          0
FA00800070       06010080         06010070         112.38     0.0130     174.39     173.95     0          0
FA00700060       06010070         06010060         115.81     0.0130     173.85     173.65     0          0
FA00600050       06010060         06010050         90.80      0.0130     173.65     173.44     0          0
FA00500040       06010050         06010040         143.87     0.0130     173.44     173.11     0          0
FA00400030       06010040         06010030         70.20      0.0130     173.04     172.89     0          0
FA00300020       06010030         06010020         111.72     0.0130     172.72     172.67     0          0
FA00200005       06010020         06010005         166.09     0.0130     172.63     172.45     0          0
FA0005HLPS       06010005         HighLiftWW       250.00     0.0130     172.45     171.50     0          0
FC00400030       06030040         06030030         125.09     0.0130     177.43     176.06     0          0
FC00300020       06030030         06030020         122.77     0.0130     176.04     175.69     0          0
FC00200010       06030020         06030010         120.43     0.0130     175.67     175.46     0          0
FC00100040       06030010         06010040         120.55     0.0130     175.37     173.34     0          0
LA00300020       12010030         12010020         76.29      0.0130     180.97     180.86     0          0
LA00200010       12010020         12010010         201.13     0.0130     180.81     180.33     0          0