;; SWMM5 .inp converted from XPSWMM .xp file
;; Generated by XPSWMM Card Reader
;; Source format: XP_CARD | Original title: Woy Woy Major SPS Catchment

[TITLE]
;;Project Title/Notes
Woy Woy Major SPS Catchment

[OPTIONS]
FLOW_UNITS           CMS
INFILTRATION         HORTON
FLOW_ROUTING         DYNWAVE
LINK_OFFSETS         DEPTH
MIN_SLOPE            0.0
ALLOW_PONDING        NO
SKIP_STEADY_STATE    NO
ROUTING_STEP         00:00:05
VARIABLE_STEP        0.75
INERTIAL_DAMPING     PARTIAL
NORMAL_FLOW_LIMITED  BOTH
MAX_TRIALS           100
HEAD_TOLERANCE       .001

[JUNCTIONS]
;;Name           Elev       MaxDepth   InitDepth  SurDepth   Aponded
;;-------------- ---------- ---------- ---------- ---------- ----------
ZA1              101.00     0          0          0          0
VC16             146.93     0          0          0          0
VC15             145.21     0          0          0          0
VC14             117.58     0          0          0          0
VC13             115.52     0          0          0          0
VC12             115.00     0          0          0          0
VC11             111.84     0          0          0          0
VC8              102.33     0          0          0          0
VC6              101.80     0          0          0          0
VC5              101.43     0          0          0          0
VC4              101.58     0          0          0          0
VC3              101.41     0          0          0          0
VC2              101.19     0          0          0          0
VC1              101.69     0          0          0          0
VA2              101.62     0          0          0          0
WG9              121.46     0          0          0          0
WG6              119.44     0          0          0          0
WG5              117.74     0          0          0          0
WG4              115.11     0          0          0          0
WG3              109.88     0          0          0          0
WG1              101.85     0          0          0          0
WF1              101.11     0          0          0          0
WA39A            107.78     0          0          0          0
WA39             108.17     0          0          0          0
WA38             107.21     0          0          0          0
WA37             106.83     0          0          0          0
WA36             106.72     0          0          0          0
WA33             107.90     0          0          0          0
WA32             106.91     0          0          0          0
WA31             107.02     0          0          0          0
WA30             106.76     0          0          0          0
WA29             107.07     0          0          0          0
WA27             106.55     0          0          0          0
WA26             106.92     0          0          0          0
WA24             106.67     0          0          0          0
WA23             106.37     0          0          0          0
WA22             105.51     0          0          0          0
WA20             104.60     0          0          0          0
WA19             105.20     0          0          0          0
WA18             105.05     0          0          0          0
WA15             104.11     0          0          0          0
WA14             104.07     0          0          0          0
WA13             103.20     0          0          0          0
WA12             102.86     0          0          0          0
WA11             102.86     0          0          0          0
WA10             102.74     0          0          0          0
WA9              102.68     0          0          0          0
WA8              102.82     0          0          0          0
WA7              105.30     0          0          0          0
WA6              102.47     0          0          0          0
WA5              102.37     0          0          0          0
WA4              102.19     0          0          0          0
WA3              102.49     0          0          0          0
WA2              101.77     0          0          0          0
WA1              103.76     0          0          0          0
NX8              102.49     0          0          0          0
NX7              102.19     0          0          0          0
NX6              102.34     0          0          0          0
NX5              102.14     0          0          0          0
NX4              103.93     0          0          0          0
NX3              101.49     0          0          0          0
NX2              101.72     0          0          0          0
NP2              101.27     0          0          0          0
NP1              100.95     0          0          0          0
Junct.           120.00     0          0          0          0
NP3              101.65     0          0          0          0
NP4              101.50     0          0          0          0
NP5              101.32     0          0          0          0
NP6              101.51     0          0          0          0
NP9              103.61     0          0          0          0
NP12             101.05     0          0          0          0
NP11             102.91     0          0          0          0
NP17             101.09     0          0          0          0
NP13             100.84     0          0          0          0
NP19             105.29     0          0          0          0
NP18             102.21     0          0          0          0
NP23             103.76     0          0          0          0
NP21             104.83     0          0          0          0
NP20             105.00     0          0          0          0
NP27A            104.79     0          0          0          0
NP27             104.64     0          0          0          0
NP26             104.59     0          0          0          0
NP25             104.04     0          0          0          0
NP24             103.78     0          0          0          0
NH3              102.15     0          0          0          0
NH2              101.44     0          0          0          0
NH1              101.12     0          0          0          0
NH11             104.92     0          0          0          0
NH10             102.23     0          0          0          0
NH7              102.20     0          0          0          0
NH6              101.03     0          0          0          0
NE1              100.98     0          0          0          0
VA1              101.62     0          0          0          0
VB1              101.52     0          0          0          0
NHA11            105.02     0          0          0          0
JT7              104.65     0          0          0          0
JT4              104.23     0          0          0          0
JT3A             104.21     0          0          0          0
JT2              102.52     0          0          0          0
JT1A             102.73     0          0          0          0
JT1              102.47     0          0          0          0
JT11             104.28     0          0          0          0
JT10             104.38     0          0          0          0
JT9              104.58     0          0          0          0
JT8              104.56     0          0          0          0
KB2              104.04     0          0          0          0
KB1A             104.18     0          0          0          0
KB1B             104.16     0          0          0          0
KB4              104.30     0          0          0          0
KB3              103.97     0          0          0          0
KB2A             103.90     0          0          0          0
KB9A             105.24     0          0          0          0
KB9              105.08     0          0          0          0
KB7              104.43     0          0          0          0
KB6              104.00     0          0          0          0
JT16             105.71     0          0          0          0
JT15             105.55     0          0          0          0
JT14             105.13     0          0          0          0
JT13             105.03     0          0          0          0
JT12             104.81     0          0          0          0
KL1              104.09     0          0          0          0
KI1              103.86     0          0          0          0
KI3              103.88     0          0          0          0
KI2              103.89     0          0          0          0
KI5              103.92     0          0          0          0
KI4              103.95     0          0          0          0
KI12             104.80     0          0          0          0
KI9              104.66     0          0          0          0
KI15             105.12     0          0          0          0
KI14             105.11     0          0          0          0
KI16             104.97     0          0          0          0
KB13             104.62     0          0          0          0
KB12             104.55     0          0          0          0
KB11             104.97     0          0          0          0
KB10             105.30     0          0          0          0
KB18             104.68     0          0          0          0
KB17             104.31     0          0          0          0
KB16             104.16     0          0          0          0
KB15             104.05     0          0          0          0
JU4              104.55     0          0          0          0
JU3              104.26     0          0          0          0
JU2              104.32     0          0          0          0
JU1              104.33     0          0          0          0
JU6              104.10     0          0          0          0
JU5              104.25     0          0          0          0
CJ1              101.39     0          0          0          0
CJ3              102.17     0          0          0          0
CJ2              101.44     0          0          0          0
CJ7              102.46     0          0          0          0
CJ5              102.35     0          0          0          0
CJ4A             101.97     0          0          0          0
CJ12             101.57     0          0          0          0
CJ11A            101.60     0          0          0          0
CJ10             101.95     0          0          0          0
CJ15             102.19     0          0          0          0
CJ13             101.77     0          0          0          0
CJ21             103.64     0          0          0          0
CJ20A            103.35     0          0          0          0
CJ18A            103.11     0          0          0          0
CL2              101.31     0          0          0          0
CL1              101.44     0          0          0          0
CS1              101.26     0          0          0          0
CA2              101.27     0          0          0          0
CA1              101.33     0          0          0          0
CA5              101.03     0          0          0          0
CA4              101.21     0          0          0          0
CA3              101.21     0          0          0          0
CA6              101.09     0          0          0          0
CF2              100.95     0          0          0          0
CF1              100.95     0          0          0          0
CF8              101.12     0          0          0          0
CF7              101.37     0          0          0          0
CF6              101.38     0          0          0          0
CF5              100.95     0          0          0          0
CF4              100.99     0          0          0          0
AT1              100.91     0          0          0          0
AT2              101.31     0          0          0          0
CX1              101.97     0          0          0          0
FU1              104.66     0          0          0          0
FU2              104.76     0          0          0          0
FU1A             104.68     0          0          0          0
FU5              104.93     0          0          0          0
FU4              104.94     0          0          0          0
FU3              104.60     0          0          0          0
FU11             104.91     0          0          0          0
FU10             105.01     0          0          0          0
FU8              104.62     0          0          0          0
FU6              104.95     0          0          0          0
CX2              102.01     0          0          0          0
CX4              102.05     0          0          0          0
CX7              103.12     0          0          0          0
CX6              102.84     0          0          0          0
CX5              102.15     0          0          0          0
CX10             104.29     0          0          0          0
CX9              102.50     0          0          0          0
CX8              102.82     0          0          0          0
CY3              101.85     0          0          0          0
CY1              102.08     0          0          0          0
GK1              104.57     0          0          0          0
GK1A             104.48     0          0          0          0
FW2              104.57     0          0          0          0
FW1              104.60     0          0          0          0
FV1              104.75     0          0          0          0
FW5              104.69     0          0          0          0
FW4              104.68     0          0          0          0
FW3              104.56     0          0          0          0
FV4              104.31     0          0          0          0
FV3              104.29     0          0          0          0
FV7              104.83     0          0          0          0
FV5              104.51     0          0          0          0
FV9              104.14     0          0          0          0
FV8              104.69     0          0          0          0
EJ1              100.93     0          0          0          0
EJ5              100.94     0          0          0          0
EJ2              100.92     0          0          0          0
EJ10             104.34     0          0          0          0
EJ9              102.98     0          0          0          0
EJ8              102.60     0          0          0          0
EJ7              101.43     0          0          0          0
EJ6              101.03     0          0          0          0
EY2              101.47     0          0          0          0
EY1              101.04     0          0          0          0
EY5              103.13     0          0          0          0
FA4              101.18     0          0          0          0
FA2              101.18     0          0          0          0
FA1              100.90     0          0          0          0
FA8              103.84     0          0          0          0
FA7              103.92     0          0          0          0
FA6              103.96     0          0          0          0
HJ4              104.27     0          0          0          0
HJ2              104.29     0          0          0          0
HJ1              104.44     0          0          0          0
GX1              104.26     0          0          0          0
GW2              104.62     0          0          0          0
GW1              104.86     0          0          0          0
GX2              104.39     0          0          0          0
GX5              104.78     0          0          0          0
GX3A             104.37     0          0          0          0
GX10             104.92     0          0          0          0
GX8              105.26     0          0          0          0
GX7              105.08     0          0          0          0
GX6              104.89     0          0          0          0
MR1              103.78     0          0          0          0
MR1A             103.59     0          0          0          0
HU2              103.65     0          0          0          0
HU1              103.62     0          0          0          0
HT1              104.29     0          0          0          0
JH1              102.75     0          0          0          0
HU6              103.21     0          0          0          0
HU5              103.04     0          0          0          0
HU4              103.30     0          0          0          0
HU3              103.56     0          0          0          0
JH1A             103.09     0          0          0          0
JH5              103.09     0          0          0          0
JH2              102.61     0          0          0          0
HV5              103.85     0          0          0          0
HV4              103.59     0          0          0          0
HV3              103.45     0          0          0          0
HV1              103.76     0          0          0          0
HV10             104.83     0          0          0          0
HV8              104.76     0          0          0          0
HV6              103.75     0          0          0          0
HV13             105.21     0          0          0          0
HV12             105.00     0          0          0          0
HX6              103.34     0          0          0          0
HX5              103.91     0          0          0          0
HX3              104.18     0          0          0          0
HX1              103.99     0          0          0          0
IG2A             103.86     0          0          0          0
IG2              103.99     0          0          0          0
IG1              103.82     0          0          0          0
IG6              102.51     0          0          0          0
IG4              103.09     0          0          0          0
IG3              103.33     0          0          0          0
IG8              102.31     0          0          0          0
IG7              102.52     0          0          0          0
IG12             103.34     0          0          0          0
IG11             102.93     0          0          0          0
IG10             102.47     0          0          0          0
IG16             103.15     0          0          0          0
IG15             103.40     0          0          0          0
IG14             103.16     0          0          0          0
IG13             103.12     0          0          0          0
HT4              103.45     0          0          0          0
HT3              104.32     0          0          0          0
HT2              104.30     0          0          0          0
LA1              102.11     0          0          0          0
LA2              102.11     0          0          0          0
LA6              101.77     0          0          0          0
LA5              101.81     0          0          0          0
LA3              101.90     0          0          0          0
LD1              100.96     0          0          0          0
LA8              101.14     0          0          0          0
LD4              101.46     0          0          0          0
LD6              102.09     0          0          0          0
LD5              101.84     0          0          0          0
LD8              110.26     0          0          0          0
LD7              108.97     0          0          0          0
MO1              115.15     0          0          0          0
LD10             114.58     0          0          0          0
KZ3              103.00     0          0          0          0
KZ1              103.31     0          0          0          0
KZ4              103.39     0          0          0          0
KZ7              104.12     0          0          0          0
KZ6              104.67     0          0          0          0
KZ5              104.22     0          0          0          0
KZ10             104.01     0          0          0          0
KZ9              104.57     0          0          0          0
KZ8              103.94     0          0          0          0
KZ13             104.54     0          0          0          0
KZ12             104.28     0          0          0          0
KZ11             104.05     0          0          0          0
KZ15             105.20     0          0          0          0
LT3              103.77     0          0          0          0
LT2              104.09     0          0          0          0
OR1              104.02     0          0          0          0
OR5              101.83     0          0          0          0
OR4              101.17     0          0          0          0
OR3              101.46     0          0          0          0
OR8              107.84     0          0          0          0
OR6              106.43     0          0          0          0
OU3              110.33     0          0          0          0
OU1              111.02     0          0          0          0
OR9              111.25     0          0          0          0
OU7              113.42     0          0          0          0
OU6              113.71     0          0          0          0
OU5              111.59     0          0          0          0
OU8              114.47     0          0          0          0
OC5              103.44     0          0          0          0
OC4              103.95     0          0          0          0
OC1              103.61     0          0          0          0
AG1              101.48     0          0          0          0
FB2              101.06     0          0          0          0
FB1              101.05     0          0          0          0
outlet           120.00     0          0          0          0

[STORAGE]
;;Name           Elev       MaxDepth   InitDepth  Shape      Curve/Params
;;-------------- ---------- ---------- ---------- ---------- ----------
WB3              101.00     0          1.80       FUNCTIONAL 5.70 0          0
WB2              101.35     0          1.60       FUNCTIONAL 5.70 0          0
WB1              101.00     0          1.60       FUNCTIONAL 5.70 0          0
WW13C            101.29     0          1.80       FUNCTIONAL 5.70 0          0
WW13B            101.23     0          1.60       FUNCTIONAL 2.50 0          0
WW13A            102.15     0          1.60       FUNCTIONAL 1.30 0          0
KB19             105.65     0          0          FUNCTIONAL 4.20 0          0
JU7              104.50     0          0          FUNCTIONAL 6.00 0          0
WW3              101.47     0          2.63       FUNCTIONAL 5.70 0          0
CJ22             103.67     0          0          FUNCTIONAL 3.10 0          0
WW3A             101.39     0          1.60       FUNCTIONAL 2.50 0          0
CF9              101.27     0          0          FUNCTIONAL 1.50 0          0
WW2              101.02     0          1.70       FUNCTIONAL 2.50 0          0
WW1              101.52     0          1.45       FUNCTIONAL 2.50 0          0
WW4              102.05     0          1.70       FUNCTIONAL 2.50 0          0
WW6              104.74     0          2.70       FUNCTIONAL 2.50 0          0
WW5              101.14     0          1.60       FUNCTIONAL 2.50 0          0
WW7              104.71     0          1.60       FUNCTIONAL 2.50 0          0
WW9              103.66     0          1.23       FUNCTIONAL 2.50 0          0
WW8              104.29     0          2.31       FUNCTIONAL 5.70 0          0
WW10             102.06     0          2.61       FUNCTIONAL 2.50 0          0
WW14B            104.66     0          1.18       FUNCTIONAL 2.50 0          0
WW14A            102.15     0          2.08       FUNCTIONAL 2.50 0          0

[CONDUITS]
;;Name           From             To               Length     Roughness  InOffset   OutOffset  InitFlow   MaxFlow
;;-------------- ---------------- ---------------- ---------- ---------- ---------- ---------- ---------- ----------
CWB3-SWB3        ZA1              WB3              20.00      0.0130     96.75      96.72      0          0
L-VC15           VC16             VC15             23.80      0.0130     144.90     143.33     0          0
L-VC14           VC15             VC14             91.00      0.0130     143.33     116.38     0          0
L-VC13           VC14             VC13             16.20      0.0130     116.38     114.39     0          0
L-VC12           VC13             VC12             13.00      0.0130     114.39     113.97     0          0
L-OVC11          VC12             VC11             8.20       0.0130     113.97     109.59     0          0
L-OVC8           VC11             VC8              42.00      0.0130     109.59     100.00     0          0
L-OVC6           VC8              VC6              64.10      0.0130     100.00     99.67      0          0
L-OVC5           VC6              VC5              39.70      0.0130     99.67      99.50      0          0
L-OVC4           VC5              VC4              49.30      0.0130     99.50      99.35      0          0
L-OVC3           VC4              VC3              36.30      0.0130     99.35      99.13      0          0
L-OVC2           VC3              VC2              36.50      0.0130     99.13      98.99      0          0
L-VC1            VC2              VC1              22.60      0.0130     98.99      98.96      0          0
L-VA2            VC1              VA2              32.00      0.0130     98.96      98.89      0          0
L-WG6            WG9              WG6              40.60      0.0130     120.41     117.94     0          0
L-WG5            WG6              WG5              15.70      0.0130     117.94     116.17     0          0
355              WG5              WG4              49.60      0.0130     116.17     113.79     0          0
L-WG3            WG4              WG3              15.50      0.0130     113.79     109.11     0          0
L-WG1            WG3              WG1              14.40      0.0130     109.11     99.00      0          0
L-WF1            WG1              WF1              256.30     0.0130     99.00      97.59      0          0
L-SWB1           WF1              WB1              5.20       0.0140     97.59      97.57      0          0
382              WA39A            WA39             63.40      0.0140     107.08     106.87     0          0
384              WA39             WA38             26.20      0.0140     106.87     106.56     0          0
386              WA38             WA37             16.50      0.0140     106.56     106.13     0          0
388              WA37             WA36             24.70      0.0140     106.13     105.87     0          0
390              WA36             WA33             86.50      0.0140     105.87     105.59     0          0
392              WA33             WA32             45.90      0.0140     105.59     105.41     0          0
394              WA32             WA31             15.20      0.0140     105.41     105.32     0          0
396              WA31             WA30             24.00      0.0140     105.32     104.36     0          0
398              WA30             WA29             33.10      0.0140     104.36     104.07     0          0
400              WA29             WA27             49.30      0.0140     104.07     104.05     0          0
402              WA27             WA26             26.80      0.0140     104.05     103.92     0          0
404              WA26             WA24             51.40      0.0140     103.92     103.67     0          0
406              WA24             WA23             33.70      0.0140     103.67     103.37     0          0
408              WA23             WA22             27.50      0.0140     103.37     103.31     0          0
410              WA22             WA20             56.30      0.0140     103.31     103.10     0          0
412              WA20             WA19             23.20      0.0140     103.10     102.90     0          0
414              WA19             WA18             23.40      0.0140     102.90     102.84     0          0
416              WA18             WA15             87.50      0.0140     102.84     102.71     0          0
418              WA15             WA14             40.90      0.0140     102.71     102.47     0          0
420              WA14             WA13             59.50      0.0140     102.47     102.30     0          0
422              WA13             WA12             17.00      0.0140     102.30     102.26     0          0
424              WA12             WA11             25.20      0.0140     102.26     102.25     0          0
426              WA11             WA10             31.40      0.0140     102.25     102.14     0          0
428              WA10             WA9              10.00      0.0140     102.14     102.08     0          0
430              WA9              WA8              45.00      0.0140     101.63     101.33     0          0
432              WA8              WA7              110.00     0.0140     101.33     101.20     0          0
434              WA7              WA6              12.50      0.0140     101.20     101.18     0          0
436              WA6              WA5              19.00      0.0140     101.18     101.08     0          0
438              WA5              WA4              31.00      0.0140     101.08     101.04     0          0
440              WA4              WA3              52.40      0.0140     101.04     100.89     0          0
442              WA3              WA2              43.50      0.0140     100.89     100.77     0          0
444              WA2              WA1              14.50      0.0140     100.77     100.76     0          0
446              WA1              NX8              47.90      0.0140     100.76     100.60     0          0
448              NX8              NX7              8.30       0.0140     100.60     100.53     0          0