;; SWMM5 .inp converted from XPSWMM .xp file
;; Generated by XPSWMM Card Reader
;; Source format: XP_CARD | Original title: FT SMITH STORMWATER MANAGEMENT PLAN - OAK PARK - 6/2/92

[TITLE]
;;Project Title/Notes
FT SMITH STORMWATER MANAGEMENT PLAN - OAK PARK - 6/2/92

[OPTIONS]
FLOW_UNITS           CFS
INFILTRATION         HORTON
FLOW_ROUTING         DYNWAVE
LINK_OFFSETS         DEPTH
MIN_SLOPE            0.0
ALLOW_PONDING        NO
SKIP_STEADY_STATE    NO
ROUTING_STEP         00:00:15
VARIABLE_STEP        0.75
INERTIAL_DAMPING     NONE
NORMAL_FLOW_LIMITED  BOTH
MAX_TRIALS           30

[JUNCTIONS]
;;Name           Elev       MaxDepth   InitDepth  SurDepth   Aponded
;;-------------- ---------- ---------- ---------- ---------- ----------
1000n            500.00     0          0          0          0
999n             500.00     0          0          0          0
1001n            500.00     0          0          0          0
3n               500.00     0          0          0          0
1005n            500.00     0          0          0          0
1006n            500.00     0          0          0          0
1008n            500.00     0          0          0          0
1009n            500.00     0          0          0          0
1011n            500.00     0          0          0          0
1012n            500.00     0          0          0          0
1014n            500.00     0          0          0          0
1015n            500.00     0          0          0          0
1017n            500.00     0          0          0          0
1018n            500.00     0          0          0          0
1020n            500.00     0          0          0          0
1022n            500.00     0          0          0          0
1023n            500.00     0          0          0          0
1025n            500.00     0          0          0          0
1026n            500.00     0          0          0          0
1080n            500.00     0          0          0          0
1028n            500.00     0          0          0          0
1029n            500.00     0          0          0          0
1031n            500.00     0          0          0          0
1040n            500.00     0          0          0          0
1042n            500.00     0          0          0          0
1044n            500.00     0          0          0          0
1045n            500.00     0          0          0          0
1047n            500.00     0          0          0          0
1050n            500.00     0          0          0          0
1052n            500.00     0          0          0          0
1060n            500.00     0          0          0          0
1061n            500.00     0          0          0          0
1063n            500.00     0          0          0          0
1070n            500.00     0          0          0          0
1082n            500.00     0          0          0          0
1083n            500.00     0          0          0          0
1086n            500.00     0          0          0          0
1088n            500.00     0          0          0          0
1089n            500.00     0          0          0          0

[STORAGE]
;;Name           Elev       MaxDepth   InitDepth  Shape      Curve/Params
;;-------------- ---------- ---------- ---------- ---------- ----------
1085n            500.00     0          0          FUNCTIONAL 0 0          0

[CONDUITS]
;;Name           From             To               Length     Roughness  InOffset   OutOffset  InitFlow   MaxFlow
;;-------------- ---------------- ---------------- ---------- ---------- ---------- ---------- ---------- ----------
1000             1000n            999n             840.00     0          398.40     395.00     0          0
1001             10011            1000n            241.00     0.0242     0          0          0          0
1003             3n               1001n            1450.00    0          406.00     398.70     0          0
1005             1005n            3n               1350.00    0          406.60     406.00     0          0
1006             10061            1005n            209.00     0.0259     0          0          0          0
1008             1008n            1006n            1200.00    0          412.60     407.00     0          0
1009             1009n            1008n            270.00     0.0282     413.20     412.60     0          0
1011             1011n            1009n            530.00     0          413.50     413.20     0          0
1012             1012n            1011n            241.00     0.0245     414.40     413.50     0          0
1014             1014n            1012n            970.00     0          419.00     414.40     0          0
1015             10151            1014n            171.00     0.0216     0          0          0          0
1017             1017n            1015n            390.00     0          419.90     419.10     0          0
1018             10181            1017n            230.00     0.0170     0          0          0          0
1020             1020n            1018n            960.00     0          427.00     420.00     0          0
1022             1022n            1020n            810.00     0          429.00     427.00     0          0
1023             1023n            1022n            226.00     0.0265     429.20     429.00     0          0
1025             1025n            1023n            304.00     0          430.20     429.20     0          0
1026             10261            1025n            171.00     0.0184     0          0          0          0
10262            1026n            1080n            700.00     0.0240     439.00     438.90     0          0
1028             1028n            1026n            740.00     0          435.90     431.90     0          0
1029             10291            1028n            176.00     0.0183     0          0          0          0
1031             1031n            1029n            640.00     0          442.50     436.30     0          0
1040             1040n            1006n            900.00     0          414.00     407.00     0          0
1042             1042n            1040n            950.00     0          421.00     414.00     0          0
1044             1044n            1042n            850.00     0          425.40     421.00     0          0
1045             10451            1044n            171.00     0.0183     0          0          0          0
1047             1047n            1045n            650.00     0          432.00     425.50     0          0
1050             1050n            1040n            850.00     0          420.00     414.00     0          0
1052             1052n            1050n            740.00     0          433.70     420.00     0          0
1060             1060n            1009n            510.00     0          419.60     413.20     0          0
1061             10611            1060n            160.00     0.0165     0          0          0          0
1063             1063n            1061n            560.00     0          430.00     419.80     0          0
1070             1070n            1015n            590.00     0          428.00     419.10     0          0
1080             1080n            1020n            171.00     0.0178     436.10     427.00     0          0
10801            1080n            1085n            460.00     0.0400     438.60     436.30     0          0
10802            1080n            1022n            171.00     0.0105     440.50     433.40     0          0
1082             1082n            1080n            630.00     0          441.70     436.10     0          0
1083             10831            1082n            244.00     0.0294     0          0          0          0
1085             1085n            1086n            135.00     0.0262     435.80     435.50     0          0
1086             1086n            1088n            460.00     0.0400     435.50     435.00     0          0
1088             1088n            1089n            171.00     0.0285     435.00     434.00     0          0
1089             1089n            1018n            610.00     0          434.00     420.00     0          0

[XSECTIONS]
;;Link           Shape        Geom1      Geom2      Geom3      Geom4      Barrels
;;-------------- ------------ ---------- ---------- ---------- ---------- ----------
1000             IRREGULAR    0          0          0          0          1
1001             RECT_CLOSED  8.00       8.00       0          0          1
1003             IRREGULAR    0          0          0          0          1
1005             IRREGULAR    0          0          0          0          1
1006             RECT_CLOSED  6.00       17.00      0          0          1
1008             IRREGULAR    0          0          0          0          1
1009             CIRCULAR     10.00      0          0          0          1
1011             IRREGULAR    0          0          0          0          1
1012             CIRCULAR     8.00       0          0          0          1
1014             IRREGULAR    0          0          0          0          1
1015             RECT_CLOSED  4.00       10.00      0          0          1
1017             IRREGULAR    0          0          0          0          1
1018             CIRCULAR     7.10       0          0          0          1
1020             IRREGULAR    0          0          0          0          1
1022             IRREGULAR    0          0          0          0          1
1023             RECT_CLOSED  7.00       14.00      0          0          1
1025             IRREGULAR    0          0          0          0          1
1026             RECT_CLOSED  4.00       4.00       0          0          1
10262            TRAPEZOIDAL  2.00       50.00      0          0          1
1028             IRREGULAR    0          0          0          0          1
1029             CIRCULAR     4.25       0          0          0          1
1031             IRREGULAR    0          0          0          0          1
1040             IRREGULAR    0          0          0          0          1
1042             IRREGULAR    0          0          0          0          1
1044             IRREGULAR    0          0          0          0          1
1045             RECT_CLOSED  4.00       4.50       0          0          1
1047             IRREGULAR    0          0          0          0          1
1050             IRREGULAR    0          0          0          0          1
1052             IRREGULAR    0          0          0          0          1
1060             IRREGULAR    0          0          0          0          1
1061             RECT_CLOSED  3.50       3.00       0          0          1
1063             IRREGULAR    0          0          0          0          1
1070             IRREGULAR    0          0          0          0          1
1080             CIRCULAR     4.00       0          0          0          1
10801            TRAPEZOIDAL  5.00       50.00      0          0          1
10802            TRAPEZOIDAL  0.50       100.00     0          0          1
1082             IRREGULAR    0          0          0          0          1
1083             CIRCULAR     4.00       0          0          0          1
1085             CIRCULAR     2.50       0          0          0          1
1086             TRAPEZOIDAL  4.00       50.00      0          0          1
1088             RECT_CLOSED  4.00       3.00       0          0          1
1089             IRREGULAR    0          0          0          0          1

[LOSSES]
;;Link           Inlet      Outlet     Average    Flap Gate
;;-------------- ---------- ---------- ---------- ----------
1000             0          0          0          NO
1001             0          0          0          NO
1003             0          0          0          NO
1005             0          0          0          NO
1006             0          0          0          NO
1008             0          0          0          NO
1009             0          0          0          NO
1011             0          0          0          NO
1012             0          0          0          NO
1014             0          0          0          NO
1015             0          0          0          NO
1017             0          0          0          NO
1018             0          0          0          NO
1020             0          0          0          NO
1022             0          0          0          NO
1023             0          0          0          NO
1025             0          0          0          NO
1026             0          0          0          NO
10262            0          0          0          NO
1028             0          0          0          NO
1029             0          0          0          NO
1031             0          0          0          NO
1040             0          0          0          NO
1042             0          0          0          NO
1044             0          0          0          NO
1045             0          0          0          NO
1047             0          0          0          NO
1050             0          0          0          NO
1052             0          0          0          NO
1060             0          0          0          NO
1061             0          0          0          NO
1063             0          0          0          NO
1070             0          0          0          NO
1080             0          0          0          NO
10801            0          0          0          NO
10802            0          0          0          NO
1082             0          0          0          NO
1083             0          0          0          NO
1085             0          0          0          NO
1086             0          0          0          NO
1088             0          0          0          NO
1089             0          0          0          NO

[COORDINATES]
;;Node           X-Coord            Y-Coord
;;-------------- ------------------ ------------------
1000n            835.02             99.02             
999n             855.02             99.02             
1001n            815.02             99.02             
3n               795.02             99.02             
1005n            775.02             99.02             
1006n            755.02             99.02             
1008n            735.02             99.02             
1009n            715.02             99.02             
1011n            695.02             99.02             
1012n            675.02             99.02             
1014n            655.02             99.02             
1015n            635.02             99.02             
1017n            615.02             99.02             
1018n            595.02             99.02             
1020n            575.02             99.02             
1022n            555.02             99.02             
1023n            535.02             99.02             
1025n            515.02             99.02             
1026n            395.02             99.02             
1080n            415.02             99.02             
1028n            375.02             99.02             
1029n            355.02             99.02             
1031n            335.02             99.02             
1040n            755.02             79.02             
1042n            761.86             60.23             
1044n            768.70             41.43             
1045n            775.54             22.64             
1047n            782.38             3.85              
1050n            748.18             60.23             
1052n            741.34             41.43             
1060n            715.02             119.02            
1061n            715.02             139.02            
1063n            715.02             159.02            
1070n            635.02             79.02             
1085n            435.02             99.02             
1082n            415.02             119.02            
1083n            415.02             139.02            
1086n            455.02             99.02             
1088n            475.02             99.02             
1089n            495.02             99.02             

[MAP]
DIMENSIONS 335.02 3.85 855.02 159.02
Units      None

[REPORT]
INPUT            YES
SUBCATCHMENTS    ALL
NODES            ALL
LINKS            ALL



