;; SWMM5 .inp converted from XPSWMM .xp file
;; Generated by XPSWMM Card Reader
;; Source format: XP_CARD | Original title: Honouliuli Revised Extran Hydraulic Model (Prefinal 10/13/98)

[TITLE]
;;Project Title/Notes
Honouliuli Revised Extran Hydraulic Model (Prefinal 10/13/98)

[OPTIONS]
FLOW_UNITS           CFS
INFILTRATION         HORTON
FLOW_ROUTING         DYNWAVE
LINK_OFFSETS         DEPTH
MIN_SLOPE            0.0
ALLOW_PONDING        NO
SKIP_STEADY_STATE    NO
ROUTING_STEP         00:00:60
VARIABLE_STEP        0.75
INERTIAL_DAMPING     PARTIAL
NORMAL_FLOW_LIMITED  BOTH
MAX_TRIALS           50
HEAD_TOLERANCE       0.0033

[JUNCTIONS]
;;Name           Elev       MaxDepth   InitDepth  SurDepth   Aponded
;;-------------- ---------- ---------- ---------- ---------- ----------
HN05MI0165       624.30     0          0          0          0
HN05MI0164       616.70     0          0          0          0
HN05MI0163       609.30     0          0          0          0
HN05MI0162       602.20     0          0          0          0
HN05MI0161       599.80     0          0          0          0
HN05MI0159       595.50     0          0          0          0
HN05MI0158       593.30     0          0          0          0
HN05MI0666       578.90     0          0          0          0
HN05MI0157       581.20     0          0          0          0
HN05MI0156       570.20     0          0          0          0
HN05MI0665       575.40     0          0          0          0
HN05MI0155       564.60     0          0          0          0
HN05MI0664       572.20     0          0          0          0
HN05MI0154       560.00     0          0          0          0
HN05MI0663       569.40     0          0          0          0
HN05MI0153       557.10     0          0          0          0
HN05MI0656       565.10     0          0          0          0
HN05MI0657       564.50     0          0          0          0
HN05MI0152       566.30     0          0          0          0
HN05MI0662       566.20     0          0          0          0
HN05MI0658       563.00     0          0          0          0
HN05MI0661       563.80     0          0          0          0
HN05MI0151       559.00     0          0          0          0
HN05MI0659       562.10     0          0          0          0
HN05MI0149       556.90     0          0          0          0
HN05MI0148       556.70     0          0          0          0
HN05MI0147       554.90     0          0          0          0
HN05MI0146       558.20     0          0          0          0
HN05MI0145       550.40     0          0          0          0
HN05MI0144       543.70     0          0          0          0
HN05MI0143       548.50     0          0          0          0
HN05MI0142       548.80     0          0          0          0
HN05MI0141       545.40     0          0          0          0
HN05MI0674       586.60     0          0          0          0
HN05MI0673       583.90     0          0          0          0
HN05MI0672       581.30     0          0          0          0
HN05MI0671       579.10     0          0          0          0
HN05MI0669       576.80     0          0          0          0
HN05MI0667       578.10     0          0          0          0
HN05MI0668       577.10     0          0          0          0
HN05MI0139       531.70     0          0          0          0
HN05MI0138       518.30     0          0          0          0
HN05MI0137       510.20     0          0          0          0
HN05MI0136       511.60     0          0          0          0
HN05MI0135       502.80     0          0          0          0
HN05MI0134       500.40     0          0          0          0
HN05MI0133       497.40     0          0          0          0
HN05MI0132       498.40     0          0          0          0
HN05MI0131       502.80     0          0          0          0
HN05MI0129       498.50     0          0          0          0
HN05MI1229       493.00     0          0          0          0
HN05MI0128       495.50     0          0          0          0
HN05MI1228       495.40     0          0          0          0
HN05MI1231       493.30     0          0          0          0
HN05MI1232       493.80     0          0          0          0
HN05MI0127       489.20     0          0          0          0
HN05MI0126       486.90     0          0          0          0
HN05MI2604       481.20     0          0          0          0
HN05MI2603       480.40     0          0          0          0
HN05MI2602       478.40     0          0          0          0
HN05MI2601       476.00     0          0          0          0
HN05MI0121       473.00     0          0          0          0
HN05MI2600       473.60     0          0          0          0
HN05MI0119       472.00     0          0          0          0
HN05MI0111       478.00     0          0          0          0
HN05MI0112       482.50     0          0          0          0
HN05MI0118       471.50     0          0          0          0
HN05MI0113       480.50     0          0          0          0
HN05MI0117       474.00     0          0          0          0
HN05MI0114       478.00     0          0          0          0
HN05MI0115       479.50     0          0          0          0
HN05MI0116       474.00     0          0          0          0
HN05MI0109       493.00     0          0          0          0
HN05MI0108       492.00     0          0          0          0
HN05MI0107       492.00     0          0          0          0
HN05MI0106       488.00     0          0          0          0
HN05MI0105       486.00     0          0          0          0
HN05MI0104       482.50     0          0          0          0
HN05MI0103       480.00     0          0          0          0
HN05MI0140       534.50     0          0          0          0
HN05MI0088       402.50     0          0          0          0
HN05MI0087       399.20     0          0          0          0
HN05MI0102       478.00     0          0          0          0
HN05MI0101       473.00     0          0          0          0
HN05MI0099       470.00     0          0          0          0
HN05MI0098       470.00     0          0          0          0
HN05MI0097       466.00     0          0          0          0
HN05MI0096       458.00     0          0          0          0
HN05MI0095       447.50     0          0          0          0
HN05MI0094       438.00     0          0          0          0
HN05MI0093       431.50     0          0          0          0
HN05MI0092       425.50     0          0          0          0
HN05MI0091       425.50     0          0          0          0
HN05MI0089       425.50     0          0          0          0
HN05MI0086       389.00     0          0          0          0
HN05MI0085       383.60     0          0          0          0
HN05MI0084       376.00     0          0          0          0
HN05MI0083       371.00     0          0          0          0
HN05MI0082       358.00     0          0          0          0
HN05MI0081       347.40     0          0          0          0
HN05MI0080       342.00     0          0          0          0
HN05MI0079       341.50     0          0          0          0
HN05MI0078       343.20     0          0          0          0
HN05MI0077       341.60     0          0          0          0
HN05MI0076       340.50     0          0          0          0
HN05MI0075       339.80     0          0          0          0
HN05MI0074       337.70     0          0          0          0
HN05MI0073       330.40     0          0          0          0
HN05MI0072       312.00     0          0          0          0
HN05MI0071       304.20     0          0          0          0
HN05MI0069       297.20     0          0          0          0
HN05MI0068       294.00     0          0          0          0
HN05MI0067       299.30     0          0          0          0
HN05MI0066       303.00     0          0          0          0
HN05MI0065       286.60     0          0          0          0
HN05MI0064       265.50     0          0          0          0
HN05MI0063       259.40     0          0          0          0
HN05MI0062       256.00     0          0          0          0
HN05MI0061       254.40     0          0          0          0
HN05MI0059       255.20     0          0          0          0
HN05MI0058       247.00     0          0          0          0
HN05MI0057       242.80     0          0          0          0
HN05MI0056       248.30     0          0          0          0
HN05MI0055       255.00     0          0          0          0
HN05MI0054       241.50     0          0          0          0
HN05MI0053       200.20     0          0          0          0
HN05MI0052       203.00     0          0          0          0
HN05MI2700       139.30     0          0          0          0
HN05MI2703       158.60     0          0          0          0
HN05MI0049       170.60     0          0          0          0
HN05MI2702       157.00     0          0          0          0
HN05MI0051       189.00     0          0          0          0
HN05MI2701       144.70     0          0          0          0
HN05MI0048       159.70     0          0          0          0
HN05GW0400       119.40     0          0          0          0
HN05GW0048       117.30     0          0          0          0
HN05GW0047       106.00     0          0          0          0
HN05GW0046       110.50     0          0          0          0
HN05GW0045       107.50     0          0          0          0
HN05GW0044       109.20     0          0          0          0
HN05GW0043       107.80     0          0          0          0
HN05GW0042       109.00     0          0          0          0
HN05GW0041       114.20     0          0          0          0
HN05GW0039       105.20     0          0          0          0
HN05MI0046       122.50     0          0          0          0
HN05MI0045       124.40     0          0          0          0
HN05MI0044       119.00     0          0          0          0
HN05MI0043       120.40     0          0          0          0
HN05MI0042       120.00     0          0          0          0
HN05MI0041       118.00     0          0          0          0
HN05GW0033       71.00      0          0          0          0
HN05GW0032       56.40      0          0          0          0
HN05GW0031       53.00      0          0          0          0
HN05MI0039       114.20     0          0          0          0
HN05GW0029       45.60      0          0          0          0
HN05MI0038       106.80     0          0          0          0
HN05GW0028       32.40      0          0          0          0
HN05MI0037       92.80      0          0          0          0
HN05GW0027       20.00      0          0          0          0
HN05MI0036       76.40      0          0          0          0
HN05MI0035       74.40      0          0          0          0
HN05GW0026       14.40      0          0          0          0
HN05MI0034       69.80      0          0          0          0
HN05GW0025       11.40      0          0          0          0
HN05MI0033       63.30      0          0          0          0
HN05MI0032       61.30      0          0          0          0
HN05MI0031       54.00      0          0          0          0
HN05MI0027       38.40      0          0          0          0
HN05MI0028       39.20      0          0          0          0
HN05MI0029       43.00      0          0          0          0
HN05MI0026       37.20      0          0          0          0
HN05GW0024       11.40      0          0          0          0
HN05CR0334       21.60      0          0          0          0
HN05CR0627       13.00      0          0          0          0
HN05CR0332       12.60      0          0          0          0
HN05CR0333       13.00      0          0          0          0
HN05CR0331       11.80      0          0          0          0
HN05MI0025       32.60      0          0          0          0
HN05GW0023       7.60       0          0          0          0
HN05CR0330       10.00      0          0          0          0
HN05MI0024       28.40      0          0          0          0
HN05CR0329       9.20       0          0          0          0
HN05MI0023       34.30      0          0          0          0
HN05GW0021       7.00       0          0          0          0
HN05CR0328       6.80       0          0          0          0
HN05MI0022       35.50      0          0          0          0
HN05GW0019       7.00       0          0          0          0
HN05CR0327       5.60       0          0          0          0
HN05GW0018       6.00       0          0          0          0
HN05CR0326       6.80       0          0          0          0
HN05GW0017       5.20       0          0          0          0
HN05MI0021       37.40      0          0          0          0
HN05CR0325       8.00       0          0          0          0
HN05GW0016       6.00       0          0          0          0
HN05MI0019       30.30      0          0          0          0
HN05GW0015       6.60       0          0          0          0
HN05CR0018       7.40       0          0          0          0
HN05MI0018       26.40      0          0          0          0
HN05GW0014       9.10       0          0          0          0
HN05CR0017       8.80       0          0          0          0
HN05MI0017       21.20      0          0          0          0
HN05WP0164       10.60      0          0          0          0
HN05GW0013       7.10       0          0          0          0
HN05CR0016       7.70       0          0          0          0
HN05MI0015       10.00      0          0          0          0
HN05WP0163       8.90       0          0          0          0
HN05GW0012       7.20       0          0          0          0
HN05MI0016       7.40       0          0          0          0
HN05CR0015       8.60       0          0          0          0
HN05GW0011       8.40       0          0          0          0
HN05WP0162       7.10       0          0          0          0
HN05WP0161       7.60       0          0          0          0
HN05WP0159       7.90       0          0          0          0
HN05GW0022       7.00       0          0          0          0
HN05GW0038       103.40     0          0          0          0
HN05GW0037       103.60     0          0          0          0
HN05GW0036       100.80     0          0          0          0
HN05GW0035       96.80      0          0          0          0
HN05GW0034       88.20      0          0          0          0
HN06WP0019       49.10      0          0          0          0
HN06WP0018       47.70      0          0          0          0
HN06WP0017       46.10      0          0          0          0
HN06WP0016       34.90      0          0          0          0
HN06WP0015       31.90      0          0          0          0
HN06WP0014       30.60      0          0          0          0
HN06WP0013       32.99      0          0          0          0
HN05WP0014       3.00       0          0          0          0
HN06WP0012       32.00      0          0          0          0
HN05WP0008       3.00       0          0          0          0
HN05WP0013       3.00       0          0          0          0
HN05WP0009       3.60       0          0          0          0
HN05WP0012       3.00       0          0          0          0
HN05WP0011       3.40       0          0          0          0
HN05WP0015       3.00       0          0          0          0
HN05WP0016       4.00       0          0          0          0
HN06WP0009       29.50      0          0          0          0
HN06WP0011       30.30      0          0          0          0
HN05WP0017       4.00       0          0          0          0
HN06WP0008       18.80      0          0          0          0
HN06WP0007       19.20      0          0          0          0
HN05WP0018       4.00       0          0          0          0
HN06WP0006       17.60      0          0          0          0
HN05WP0019       4.00       0          0          0          0
HN06WP0005       16.00      0          0          0          0
HN05WP0021       4.00       0          0          0          0
HN06WP0003       13.20      0          0          0          0
HN06WP0004       14.40      0          0          0          0
HN06WP0000       8.60       0          0          0          0
HN06WP0001       8.60       0          0          0          0
HN06WP0002       9.20       0          0          0          0
HN06WP3600       7.20       0          0          0          0
HN06WP3601       5.90       0          0          0          0
HN05WP0158       7.80       0          0          0          0
HN05MI0014       7.20       0          0          0          0
HN05CR0014       7.50       0          0          0          0
HN05GW0009       7.80       0          0          0          0
HN05MI0013       7.60       0          0          0          0
HN05MI0012       8.40       0          0          0          0
HN05MI0011       8.40       0          0          0          0
HN05MI0009       8.80       0          0          0          0
HN05WP0156       9.70       0          0          0          0
HN05MI0008       8.80       0          0          0          0
HN05WP0155       8.90       0          0          0          0
HN05CR0013       6.50       0          0          0          0
HN05MI0007       7.80       0          0          0          0
HN05GW0008       7.20       0          0          0          0
HN05MI0006       7.50       0          0          0          0
HN05WP0154       8.00       0          0          0          0
HN05CR0012       6.40       0          0          0          0
HN05CR0011       6.30       0          0          0          0
HN05CR0009       6.40       0          0          0          0
HN05WP0153       7.20       0          0          0          0
HN05GW0007       5.60       0          0          0          0
HN05CR0008       6.00       0          0          0          0
HN05MI0005       6.80       0          0          0          0
HN05CR0007       5.60       0          0          0          0
HN05MI0004       6.60       0          0          0          0
HN05GW0006       5.00       0          0          0          0
HN05GW0005       5.60       0          0          0          0
HN05GW0004       6.00       0          0          0          0
HN05CR0006       4.50       0          0          0          0
HN05CR0005       4.80       0          0          0          0
HN05WP0151       7.00       0          0          0          0
HN05CR0004       5.30       0          0          0          0
HN05MI0003       5.70       0          0          0          0
HN05CR0003       6.20       0          0          0          0
HN05GW0003       1.00       0          0          0          0
HN05CR0002       6.80       0          0          0          0
HN05GW0002       4.50       0          0          0          0
HN05WP0001       5.40       0          0          0          0
HN05WP9002       5.70       0          0          0          0
HN05MI0002       4.00       0          0          0          0
HN05WP9003       4.20       0          0          0          0
HN05GW0001       4.80       0          0          0          0
HN05WP0004       3.00       0          0          0          0
HN05WP0005       3.00       0          0          0          0
HN05MI0001       5.00       0          0          0          0
HN05WP0006       3.10       0          0          0          0
HN05WP9007       3.00       0          0          0          0
HN01EW0044       43.40      0          0          0          0
HN01EW0026       31.50      0          0          0          0
HN01EW0025       33.80      0          0          0          0
HN01EW0024       33.00      0          0          0          0
HN01MA0081       189.40     0          0          0          0
HN01MA0088       244.30     0          0          0          0
HN01MA0082       205.00     0          0          0          0
HN01MA0084       220.00     0          0          0          0
HN01MA0079       179.40     0          0          0          0
HN01MA0087       230.40     0          0          0          0
HN01MA0078       177.00     0          0          0          0
HN01MA0085       217.70     0          0          0          0
HN01MA0083       216.80     0          0          0          0
HN01MA0086       212.60     0          0          0          0
HN01MA0077       163.40     0          0          0          0
HN01MA0076       153.20     0          0          0          0
HN01MA0075       144.00     0          0          0          0
HN01MA0074       132.00     0          0          0          0
HN01MA0073       136.70     0          0          0          0
HN01MA0072       131.70     0          0          0          0
HN01MA0066       111.80     0          0          0          0
HN01MA0067       114.80     0          0          0          0
HN01MA0071       125.60     0          0          0          0
HN01MA0068       116.70     0          0          0          0
HN01MA0065       105.00     0          0          0          0
HN01MA0069       118.80     0          0          0          0
HN01MA0064       99.00      0          0          0          0
HN01MA0063       97.50      0          0          0          0
HN01MA0062       88.70      0          0          0          0
HN01MA0061       82.80      0          0          0          0
HN01MA0059       76.00      0          0          0          0
HN01MA0058       75.10      0          0          0          0
HN01MA0057       73.20      0          0          0          0
HN01EW0043       39.70      0          0          0          0
HN01EW0042       39.10      0          0          0          0
HN01EW0041       36.90      0          0          0          0
HN01EW2003       34.50      0          0          0          0
HN01EW2002       32.40      0          0          0          0
HN01EW2001       29.80      0          0          0          0
HN01EW2000       28.90      0          0          0          0
HN01EW0037       28.20      0          0          0          0
HN01EW0036       27.20      0          0          0          0
HN01EW0035       27.00      0          0          0          0
HN01EW0034       26.60      0          0          0          0
HN01EW0033       26.40      0          0          0          0
HN01EW0032       28.50      0          0          0          0
HN01EW0031       30.60      0          0          0          0
HN01EW0030       31.20      0          0          0          0
HN01EW0029       32.90      0          0          0          0
HN01EW0040       35.80      0          0          0          0
HN01EW0038       29.80      0          0          0          0
HN01EW0039       33.00      0          0          0          0
HN01EW0023       32.20      0          0          0          0
HN01EW0022       31.40      0          0          0          0
HN01EW0021       31.90      0          0          0          0
HN01EW0018       32.30      0          0          0          0
HN01EW0017       32.20      0          0          0          0
HN01EW0016       31.30      0          0          0          0
HN01EW0015       31.60      0          0          0          0
HN01EW0014       31.50      0          0          0          0
HN01EW0013       32.30      0          0          0          0
HN01EW0019       32.10      0          0          0          0
HN01MA2601       58.00      0          0          0          0
HN01MA2125       56.80      0          0          0          0
HN01MA2600       57.80      0          0          0          0
HN01MA2124       57.60      0          0          0          0
HN01MA2123       63.80      0          0          0          0
HN01MA2122       64.00      0          0          0          0
HN01MA2121       63.40      0          0          0          0
HN01MA2120       60.60      0          0          0          0
HN01MA2119       60.40      0          0          0          0
HN01MA0056       70.60      0          0          0          0
HN01MA0055       66.70      0          0          0          0
HN01MA0054       64.00      0          0          0          0
HN01MA0053       63.00      0          0          0          0
HN01MA2118       60.90      0          0          0          0
HN01MA2117       58.60      0          0          0          0
HN01MA2116       54.40      0          0          0          0
HN01MA2115       53.20      0          0          0          0
HN01MA2114       53.00      0          0          0          0
HN01MA2105       51.30      0          0          0          0
HN01MA2113       56.00      0          0          0          0
HN01MA2106       51.00      0          0          0          0
HN01MA2112       53.00      0          0          0          0
HN01MA2107       50.70      0          0          0          0
HN01MA2111       51.70      0          0          0          0
HN01MA2108       51.00      0          0          0          0
HN01MA2110       51.50      0          0          0          0
HN01MA2109       51.30      0          0          0          0
HN01MA0052       63.20      0          0          0          0
HN01MA0051       60.50      0          0          0          0
HN01MA0049       55.40      0          0          0          0
HN01MA0048       53.60      0          0          0          0
HN01MA0047       59.30      0          0          0          0
HN01MA0034       51.60      0          0          0          0
HN01MA0046       58.80      0          0          0          0
HN01MA0035       49.70      0          0          0          0
HN01MA0036       50.80      0          0          0          0
HN01MA0045       56.40      0          0          0          0
HN01MA0037       50.80      0          0          0          0
HN01MA0038       48.40      0          0          0          0
HN01MA0039       46.80      0          0          0          0
HN01MA0044       56.90      0          0          0          0
HN01MA0041       49.30      0          0          0          0
HN01MA2100       51.50      0          0          0          0
HN01MA0042       52.40      0          0          0          0
HN01MA0043       52.30      0          0          0          0
HN01MA2101       48.80      0          0          0          0
HN01MA2102       54.20      0          0          0          0
HN01MA2103       51.30      0          0          0          0
HN01MA2104       50.70      0          0          0          0
HN01MA0019       50.00      0          0          0          0
HN01MA0021       51.80      0          0          0          0
HN01MA0022       52.20      0          0          0          0
HN01MA0023       52.00      0          0          0          0
HN01MA0024       51.70      0          0          0          0
HN01MA0025       52.20      0          0          0          0
HN01MA0026       51.60      0          0          0          0
HN01MA0027       52.50      0          0          0          0
HN01MA0028       52.60      0          0          0          0
HN01MA0029       52.80      0          0          0          0
HN01MA0031       52.60      0          0          0          0
HN01MA0032       51.50      0          0          0          0
HN01MA0033       49.90      0          0          0          0
HN01MA0005       37.40      0          0          0          0
HN01MA0006       37.20      0          0          0          0
HN01MA0011       41.00      0          0          0          0
HN01MA0007       38.70      0          0          0          0
HN01MA0012       45.20      0          0          0          0
HN01MA0013       45.50      0          0          0          0
HN01MA0008       39.20      0          0          0          0
HN01MA0009       39.40      0          0          0          0
HN01MA0014       48.40      0          0          0          0
HN01MA0015       48.20      0          0          0          0
HN01MA0016       47.80      0          0          0          0
HN01MA0017       48.00      0          0          0          0
HN01MA0018       48.50      0          0          0          0
HN01MA0004       37.10      0          0          0          0
HN01MA0003       36.20      0          0          0          0
HN01MA0002       33.00      0          0          0          0
HN01EW0001       32.50      0          0          0          0
HN01EW0028       31.70      0          0          0          0
HN01EW0011       33.80      0          0          0          0
HN01EW0009       33.30      0          0          0          0
HN01EW0007       34.80      0          0          0          0
HN01EW0006       34.00      0          0          0          0
HN01EW0005       33.30      0          0          0          0
HN01EW0004       33.00      0          0          0          0
HN01EW0002       38.40      0          0          0          0
HN01EW0008       34.00      0          0          0          0
HN01EW0003       33.00      0          0          0          0
HN01EW0012       32.70      0          0          0          0
HN04EB0003       5.40       0          0          0          0
HN04EB0002       5.10       0          0          0          0
HN04EB0001       5.50       0          0          0          0
HN04EB0032       6.00       0          0          0          0
HN04EB0033       6.60       0          0          0          0
HN04EB0034       6.50       0          0          0          0
HN04EB0035       7.50       0          0          0          0
HN04EB0036       7.70       0          0          0          0
HN04EB0015       4.90       0          0          0          0
HN04EB0014       5.60       0          0          0          0
HN04EB0013       5.10       0          0          0          0
HN04EB0012       5.70       0          0          0          0