;; SWMM5 .inp converted from XPSWMM .xp file
;; Generated by XPSWMM Card Reader
;; Source format: XP_CARD | Original title: Greenway Flood

[TITLE]
;;Project Title/Notes
Greenway Flood

[OPTIONS]
FLOW_UNITS           CMS
INFILTRATION         HORTON
FLOW_ROUTING         DYNWAVE
LINK_OFFSETS         DEPTH
MIN_SLOPE            0.0
ALLOW_PONDING        NO
SKIP_STEADY_STATE    NO
ROUTING_STEP         00:00:03
VARIABLE_STEP        0.75
INERTIAL_DAMPING     PARTIAL
NORMAL_FLOW_LIMITED  BOTH

[JUNCTIONS]
;;Name           Elev       MaxDepth   InitDepth  SurDepth   Aponded
;;-------------- ---------- ---------- ---------- ---------- ----------
0                100.00     0          0          0          0
0                100.00     0          0          0          0
0                100.00     0          0          0          0
0                100.00     0          0          0          0
0                100.00     0          0          0          0
0                46.00      0          0          0          0
0                44.00      0          0          0          0
0                43.00      0          0          0          0
0                42.00      0          0          0          0
0                40.00      0          0          0          0
0                100.00     0          0          0          0
0                100.00     0          0          0          0
0                100.00     0          0          0          0
0                100.00     0          0          0          0
0                100.00     0          0          0          0
0                100.00     0          0          0          0
0                100.00     0          0          0          0

[CONDUITS]
;;Name           From             To               Length     Roughness  InOffset   OutOffset  InitFlow   MaxFlow
;;-------------- ---------------- ---------------- ---------- ---------- ---------- ---------- ---------- ----------
204              0                0                148.00     0.0600     43.00      41.69      0          0
CowRd            Pipe             Box              23.36      0.0600     44.00      43.47      0          0
207              0                0                200.00     0.0600     41.57      40.25      0          0
209              0                0                219.48     0.0700     40.25      38.15      0          0
211              0                0                227.35     0.0600     38.15      36.00      0          0
213              0                0                245.63     0.0700     36.00      35.00      0          0
215              0                0                228.38     0.0600     35.00      32.50      0          0
217              0                0                10.00      0.0600     32.50      32.50      0          0
219              0                0                168.65     0.0600     32.50      32.30      0          0
221              0                0                240.60     0.0600     32.30      29.90      0          0
223              0                0                163.46     0.0450     29.90      28.70      0          0
225              0                0                136.35     0.0450     28.70      28.00      0          0
227              0                0                13.00      0.0600     28.00      28.00      0          0
229              0                0                196.04     0.0600     28.00      28.00      0          0
231              0                0                155.57     0.0600     28.00      27.20      0          0
233              0                0                10.00      0.0600     27.20      27.14      0          0

[XSECTIONS]
;;Link           Shape        Geom1      Geom2      Geom3      Geom4      Barrels
;;-------------- ------------ ---------- ---------- ---------- ---------- ----------
204              IRREGULAR    0          0          0          0          1
CowRd            IRREGULAR    0          0          0          0          3
207              IRREGULAR    0          0          0          0          1
209              IRREGULAR    0          0          0          0          1
211              IRREGULAR    0          0          0          0          1
213              IRREGULAR    0          0          0          0          1
215              IRREGULAR    0          0          0          0          1
217              IRREGULAR    0          0          0          0          1
219              IRREGULAR    0          0          0          0          1
221              IRREGULAR    0          0          0          0          1
223              IRREGULAR    0          0          0          0          1
225              IRREGULAR    0          0          0          0          1
227              IRREGULAR    0          0          0          0          1
229              IRREGULAR    0          0          0          0          1
231              IRREGULAR    0          0          0          0          1
233              IRREGULAR    0          0          0          0          1

[LOSSES]
;;Link           Inlet      Outlet     Average    Flap Gate
;;-------------- ---------- ---------- ---------- ----------
204              0          0          0          NO
CowRd            0          0          0          NO
207              0          0          0          NO
209              0          0          0          NO
211              0          0          0          NO
213              0          0          0          NO
215              0          0          0          NO
217              0          0          0          NO
219              0          0          0          NO
221              0          0          0          NO
223              0          0          0          NO
225              0          0          0          NO
227              0          0          0          NO
229              0          0          0          NO
231              0          0          0          NO
233              0          0          0          NO

[COORDINATES]
;;Node           X-Coord            Y-Coord
;;-------------- ------------------ ------------------
0                217.09             250.26            
0                206.78             330.10            
0                208.16             345.65            
0                165.53             448.81            
0                168.28             573.88            
0                85.09              672.80            
0                -1.53              786.57            
0                -103.28            828.96            
0                -115.66            831.08            
0                -199.53            869.24            
0                -229.78            1005.61           
0                -277.22            1087.58           
0                -235.28            1143.40           
0                -212.59            1156.82           
0                -148.66            1242.32           
0                -75.78             1289.66           
0                -51.38             1297.08           

[MAP]
DIMENSIONS -277.22 250.26 217.09 1297.08
Units      None

[REPORT]
INPUT            YES
SUBCATCHMENTS    ALL
NODES            ALL
LINKS            ALL



