;; SWMM5 .inp converted from XPSWMM .xp file
;; Generated by XPSWMM Card Reader
;; Source format: XP_CARD | Original title: VALLEY STREAM EXISTING CONDITIONS

[TITLE]
;;Project Title/Notes
VALLEY STREAM EXISTING CONDITIONS

[OPTIONS]
FLOW_UNITS           CFS
INFILTRATION         HORTON
FLOW_ROUTING         DYNWAVE
LINK_OFFSETS         DEPTH
MIN_SLOPE            0.0
ALLOW_PONDING        NO
SKIP_STEADY_STATE    NO
ROUTING_STEP         00:00:02
VARIABLE_STEP        0.75
INERTIAL_DAMPING     PARTIAL
NORMAL_FLOW_LIMITED  BOTH
MAX_TRIALS           50
HEAD_TOLERANCE       0.0033

[JUNCTIONS]
;;Name           Elev       MaxDepth   InitDepth  SurDepth   Aponded
;;-------------- ---------- ---------- ---------- ---------- ----------
11               12.10      0          2.66       0          0
13               12.00      0          1.70       0          0
16               18.00      0          6.68       0          0
15               12.00      0          2.29       0          0
14               12.00      0          2.30       0          0
17               18.00      0          3.68       0          0
19               18.00      0          1.10       0          0
21               18.00      0          1.00       0          0
23               20.00      0          0          0          0
25               20.00      0          0          0          0
27               12.00      0          3.50       0          0
30               11.10      0          1.88       0          0
34               16.00      0          0          0          0
38               14.00      0          0          0          0
40               17.00      0          0          0          0
42               17.00      0          0          0          0
48               18.00      0          0          0          0
49               18.00      0          0          0          0
50               17.00      0          0          0          0
56               20.00      0          0          0          0
58               24.00      0          0          0          0
59               24.00      0          0          0          0
62               21.00      0          0          0          0
65               21.00      0          0          0          0
67               24.00      0          0          0          0
69               23.00      0          0          0          0
70               23.00      0          0          0          0
71               24.00      0          0          0          0
76               26.00      0          0          0          0
80               24.00      0          0          0          0
82               34.00      0          0          0          0
84               34.20      0          0          0          0
90               10.00      0          6.86       0          0
92               10.00      0          7.46       0          0
93               10.00      0          7.76       0          0
96               10.00      0          7.16       0          0
100              10.00      0          5.46       0          0
102              32.00      0          0          0          0
103              32.00      0          0          0          0
106              32.00      0          0          0          0
107              32.00      0          0          0          0
111              40.00      0          0          0          0
112              40.00      0          0          0          0
113              36.00      0          0          0          0
115              34.00      0          0          0          0
116              33.00      0          0          0          0
120              34.25      0          0          0          0
124              39.00      0          0          0          0
126              18.00      0          0          0          0
127              18.00      0          0          0          0
135              18.00      0          0          0          0
136              18.00      0          0          0          0
144              14.00      0          0          0          0
146              14.00      0          0          0          0
149              20.00      0          0          0          0
150              20.00      0          0          0          0
153              24.00      0          0          0          0
154              30.00      0          0          0          0
157              32.00      0          0          0          0
158              34.00      0          0          0          0
166              46.00      0          0          0          0
168              40.00      0          0          0          0
169              46.00      0          0          0          0
175              48.00      0          0          0          0
178              26.00      0          0          0          0
180              30.00      0          0          0          0
181              30.00      0          0          0          0
184              30.00      0          0          0          0
187              30.00      0          0          0          0
190              32.00      0          0          0          0
191              32.00      0          0          0          0
194              32.00      0          0          0          0
S37              31.93      0          0          0          0
199              46.00      0          0          0          0
200              47.00      0          0          0          0
S15              44.92      0          0          0          0
S14              45.45      0          0          0          0
346              15.95      0          0          0          0
240              15.80      0          0          0          0
S56              17.80      0          0          0          0
S55              19.61      0          0          0          0
246              36.00      0          0          0          0
S34              34.15      0          0          0          0
248              36.00      0          0          0          0
S35              34.95      0          0          0          0
S36              32.92      0          0          0          0
251              33.00      0          0          0          0
252              33.00      0          0          0          0
S28              40.22      0          0          0          0
S29              38.00      0          0          0          0
269              40.00      0          0          0          0
S30              38.91      0          0          0          0
271              44.00      0          0          0          0
S31              44.78      0          0          0          0
283              46.00      0          0          0          0
S32              47.00      0          0          0          0
S33              48.91      0          0          0          0
DOHERTY          59.00      0          0          0          0
RANDALL          60.76      0          0          0          0
S13              47.67      0          0          0          0
S12              53.71      0          0          0          0
S11              51.55      0          0          0          0
S10              58.02      0          0          0          0
S9               59.13      0          0          0          0
S8               57.30      0          0          0          0
S7               56.83      0          0          0          0
S6               61.52      0          0          0          0
S5               63.07      0          0          0          0
S4               64.48      0          0          0          0
S3               63.40      0          0          0          0
S2               67.21      0          0          0          0
S1               76.26      0          0          0          0
S27              45.90      0          0          0          0
S25              52.03      0          0          0          0
S24              51.26      0          0          0          0
S23              61.03      0          0          0          0
S22              53.95      0          0          0          0
S21              58.44      0          0          0          0
S20              61.80      0          0          0          0
S19              57.29      0          0          0          0
S18              58.74      0          0          0          0
S17              59.39      0          0          0          0
S26              49.39      0          0          0          0
600              10.00      0          1.84       0          0
493              10.00      0          3.96       0          0
390              44.00      0          0          0          0
S41              36.62      0          0          0          0
S40              35.27      0          0          0          0
S39              42.68      0          0          0          0
S38              38.08      0          0          0          0
402              24.00      0          0          0          0
S53              21.12      0          0          0          0
405              22.00      0          0          0          0
S54              21.53      0          0          0          0
407              26.00      0          0          0          0
415              10.00      0          7.96       0          0
417              10.00      0          11.17      0          0
418              10.00      0          11.16      0          0
HILL             60.50      0          0          0          0
KIRKMAN          52.50      0          0          0          0
S52              24.51      0          0          0          0
433              25.00      0          0          0          0
435              27.00      0          0          0          0
S49              25.28      0          0          0          0
441              30.00      0          0          0          0
S16              62.03      0          0          0          0
456              71.00      0          0          0          0
458              58.00      0          0          0          0
460              51.00      0          0          0          0
462              47.00      0          0          0          0
S42              21.46      0          0          0          0
S43              20.16      0          0          0          0
S44              19.80      0          0          0          0
S45              18.91      0          0          0          0
S46              18.00      0          0          0          0
S47              15.95      0          0          0          0
479              16.00      0          0          0          0
S48              27.25      0          0          0          0
484              26.00      0          0          0          0
488              19.00      0          0          0          0
491              32.00      0          0          0          0
497              16.00      0          0          0          0
498              16.00      0          0          0          0
501              15.00      0          0          0          0
502              16.00      0          0          0          0
503              16.00      0          0          0          0
526              57.00      0          0          0          0
528              53.00      0          0          0          0
530              49.50      0          0          0          0
535              46.00      0          0          0          0
541              46.00      0          0          0          0
547              54.00      0          0          0          0
548              46.00      0          0          0          0
549              46.00      0          0          0          0
550              46.00      0          0          0          0
556              53.00      0          0          0          0
557              54.60      0          0          0          0
561              50.00      0          0          0          0
565              99.00      0          0          0          0
572              38.00      0          0          0          0
579              12.00      0          3.36       0          0
580              12.00      0          3.96       0          0
599              10.00      0          6.16       0          0
595              10.00      0          6.06       0          0
597              10.00      0          6.36       0          0
598              10.00      0          6.46       0          0
610              40.00      0          0          0          0
613              26.00      0          0          0          0
615              24.00      0          0          0          0
617              23.00      0          0          0          0
619              24.00      0          0          0          0
620              26.00      0          0          0          0
621              26.00      0          0          0          0
622              28.00      0          0          0          0
N15              28.00      0          0          0          0
631              99.00      0          0          0          0
633              58.00      0          0          0          0
636              59.00      0          0          0          0
637              59.00      0          0          0          0
638              60.00      0          0          0          0
639              61.00      0          0          0          0
643              65.00      0          0          0          0
652              16.00      0          0          0          0
653              16.00      0          0          0          0
659              15.78      0          0          0          0
661              13.20      0          0          0          0
664              27.00      0          0          0          0
665              30.00      0          0          0          0
667              30.00      0          0          0          0
668              32.00      0          0          0          0
669              32.00      0          0          0          0
670              30.00      0          0          0          0
684              79.00      0          0          0          0
685              81.00      0          0          0          0
686              84.00      0          0          0          0
695              82.00      0          0          0          0
698              14.00      0          0          0          0
703              15.00      0          0          0          0

[OUTFALLS]
;;Name           Elev       Type       Stage      Gated
;;-------------- ---------- ---------- ---------- -----
10               10.00      FREE                  NO
95               10.00      FREE                  NO

[STORAGE]
;;Name           Elev       MaxDepth   InitDepth  Shape      Curve/Params
;;-------------- ---------- ---------- ---------- ---------- ----------
VSPOND           20.00      0          1.70       FUNCTIONAL 0 0          0
87               31.00      0          0          FUNCTIONAL 0 0          0
N351             58.00      -2.30      0          FUNCTIONAL 0 0          0
N1               38.00      0          0          FUNCTIONAL 0 0          0
N3               59.00      -3.40      0          FUNCTIONAL 0 0          0

[CONDUITS]
;;Name           From             To               Length     Roughness  InOffset   OutOffset  InitFlow   MaxFlow
;;-------------- ---------------- ---------------- ---------- ---------- ---------- ---------- ---------- ----------
1110             11               579              350.00     0.0140     1.30       0.60       0          0
13to27           13               27               300.00     0.0140     3.80       2.00       0          0
16to15           16               15               500.00     0.0140     4.28       3.21       0          0
14to13           14               13               336.00     0.0140     3.20       3.80       0          0
19to17           19               17               80.00      0.0140     4.40       4.34       0          0
37               127              25               140.00     0.0140     5.70       6.42       0          0
WBRANCH#2        38               34               300.00     0.0140     7.40       6.10       0          0
41               40               34               240.00     0.0140     5.32       6.10       0          0
VSBLVDRD         VSBLVDCULV       40               58.00      0.0140     12.70      12.69      0          0
47               501              42               288.00     0.0140     7.87       5.90       0          0
51               48               49               188.00     0.0150     9.70       8.40       0          0
52               49               50               45.00      0.0150     8.40       8.30       0          0
53               50               498              195.00     0.0150     8.30       7.96       0          0
60               59               56               605.00     0.0140     13.15      11.90      0          0
64               62               58               90.00      0.0140     13.45      13.01      0          0
WBRANCH#3        617              65               550.00     0.0140     14.60      13.50      0          0
6315             69               70               450.00     0.0140     15.95      14.95      0          0
5930             70               71               440.00     0.0140     14.95      14.30      0          0
5435             71               62               353.00     0.0140     14.30      13.45      0          0
1180             613              67               400.00     0.0140     16.69      15.80      0          0
EBEXITCU         82               158              238.00     0.0140     18.80      17.57      0          0
86               84               82               75.00      0.0140     19.20      18.80      0          0
91               10               418              260.00     0.0140     -1.00      -7.20      0          0
94               92               93               400.00     0.0140     -3.50      -3.80      0          0
97               90               96               400.00     0.0140     -2.90      -3.20      0          0
98               96               92               400.00     0.0140     -3.20      -3.50      0          0
ROSEDALE         415              95               78.00      0.0140     -4.00      -4.10      0          0
WBRANCH#1        100              93               454.00     0.0140     -1.50      -3.80      0          0
9415             102              87               190.00     0.0140     21.40      20.43      0          0
9735             106              103              285.00     0.0140     21.74      21.60      0          0
12295            112              113              505.00     0.0140     26.55      25.50      0          0
10740            115              116              525.00     0.0140     22.30      22.85      0          0
10210            116              107              415.00     0.0140     22.85      21.93      0          0
11785            113              120              517.00     0.0140     25.50      25.25      0          0
11260            120              115              523.00     0.0140     25.25      22.30      0          0
12795            111              112              465.00     0.0140     28.00      26.55      0          0
143              136              126              390.00     0.0140     6.05       5.75       0          0
VS BLVD#2        VS BLVDRD        38               51.00      0.0150     7.67       7.40       0          0
9996             146              144              500.00     0.0140     7.60       7.67       0          0
8360             158              157              715.00     0.0140     17.57      18.40      0          0
7840             157              154              530.00     0.0140     18.40      17.70      0          0
7300             154              153              455.00     0.0140     17.70      16.75      0          0
6830             153              69               542.00     0.0140     16.75      15.95      0          0
SS               87               84               232.00     0.0140     20.43      19.20      0          0
13225            166              111              300.00     0.0140     28.03      28.00      0          0
14850            175              535              407.00     0.0140     33.74      32.74      0          0
14305            541              610              510.00     0.0140     31.09      30.00      0          0
13800            168              124              550.00     0.0140     29.99      28.15      0          0
1650             178              76               550.00     0.0140     17.50      16.70      0          0
182              180              80               110.00     0.0280     16.90      17.60      0          0
SSPKWY           181              180              174.00     0.0140     18.72      16.90      0          0
2715             184              181              630.00     0.0140     20.69      18.72      0          0
STEPHCULV        187              184              71.00      0.0140     20.39      20.69      0          0
3729             190              191              385.00     0.0140     21.15      21.45      0          0
3231             191              187              365.00     0.0140     21.45      20.40      0          0
BARRYCULV        194              190              80.00      0.0140     21.95      21.15      0          0
4215             491              194              509.00     0.0140     23.55      21.95      0          0
PARK             200              199              240.00     0.0140     34.77      34.45      0          0
218              199              175              535.00     0.0140     34.45      33.74      0          0
235              S14              S15              510.00     0.0140     36.70      35.21      0          0
448              703              146              500.00     0.0140     8.65       7.60       0          0
243              S55              488              375.00     0.0140     14.02      13.16      0          0
344              S56              240              95.00      0.0140     12.30      11.40      0          0
245              659              346              340.00     0.0140     10.68      9.90       0          0
255              246              S34              450.00     0.0140     29.16      28.17      0          0
256              S34              248              100.00     0.0140     28.16      27.91      0          0
257              248              S35              230.00     0.0140     27.91      27.33      0          0
258              S35              S36              480.00     0.0140     27.28      26.21      0          0
259              S36              251              150.00     0.0140     26.15      25.80      0          0
260              251              252              600.00     0.0140     25.80      24.38      0          0
261              252              S37              350.00     0.0140     24.38      23.28      0          0
277              S31              271              325.00     0.0140     37.26      34.40      0          0
278              271              S30              325.00     0.0140     34.40      31.87      0          0
279              S30              269              300.00     0.0140     31.53      30.85      0          0
280              269              S29              300.00     0.0140     30.85      30.21      0          0
281              S29              S28              250.00     0.0140     30.16      30.16      0          0
282              S28              246              450.00     0.0140     30.16      29.16      0          0
290              S33              S32              550.00     0.0140     41.26      39.17      0          0
291              S32              283              375.00     0.0140     38.56      37.91      0          0
292              283              S31              375.00     0.0140     37.91      37.27      0          0
ROSSER           DOHERTY          HILL             252.50     0.0140     42.34      42.01      0          0
316              RANDALL          KIRKMAN          224.00     0.0140     41.66      41.32      0          0
320              S12              460              375.00     0.0140     41.07      39.83      0          0
321              S13              462              375.00     0.0140     38.58      37.64      0          0
AVERIL           S7               S8               250.00     0.0140     49.07      47.50      0          0
332              S8               458              550.00     0.0140     47.48      45.62      0          0
333              S9               S10              125.00     0.0140     44.60      43.98      0          0
334              S10              S11              750.00     0.0140     43.91      41.13      0          0
FARNUM           S11              S12              250.00     0.0140     41.09      41.07      0          0
SALISBURY        S1               456              435.00     0.0140     66.18      62.69      0          0
345              S2               S3               620.00     0.0140     59.18      54.22      0          0
446              S3               S4               380.00     0.0140     54.06      52.79      0          0
347              S4               S5               400.00     0.0140     52.78      51.82      0          0
348              S5               S6               580.00     0.0140     51.70      50.34      0          0
349              S6               S7               600.00     0.0140     50.29      49.08      0          0
363              S16              S17              250.00     0.0140     52.32      50.89      0          0
364              S17              S18              250.00     0.0140     50.85      49.83      0          0
365              S18              S19              250.00     0.0140     49.83      48.79      0          0
MOSEFAN          S19              S20              350.00     0.0140     48.77      46.85      0          0
RANDOLPH         S20              S21              250.00     0.0140     46.83      45.52      0          0
368              S21              S22              500.00     0.0140     45.50      43.16      0          0
CARUKIN          S22              S23              550.00     0.0140     43.16      41.78      0          0
370              S23              S24              500.00     0.0140     41.69      40.57      0          0
371              S24              S25              350.00     0.0140     40.55      39.79      0          0
372              S25              S26              330.00     0.0140     39.75      39.12      0          0
374              S27              199              220.00     0.0140     37.01      35.00      0          0
377              S26              S27              240.00     0.0140     39.07      37.02      0          0
494              600              493              454.00     0.0140     2.12       0          0          0
389              493              100              454.00     0.0140     0          -1.50      0          0
DTCHBWAY         390              S41              450.00     0.0140     30.70      29.47      0          0
398              S41              S40              320.00     0.0140     27.79      26.49      0          0
399              S40              S39              540.00     0.0140     26.41      25.29      0          0
400              S39              S38              575.00     0.0140     25.29      24.49      0          0
401              S38              S37              250.00     0.0140     24.47      23.28      0          0
410              407              S55              360.00     0.0140     14.20      14.02      0          0
412              405              S54              450.00     0.0140     15.30      15.20      0          0
9993             402              S53              800.00     0.0140     16.63      15.44      0          0
416              93               415              200.00     0.0140     -3.50      -4.00      0          0
421              417              599              230.00     0.0140     -7.20      -2.20      0          0
424              HILL             RANDALL          253.00     0.0140     42.01      41.66      0          0
425              KIRKMAN          S31              268.00     0.0140     41.32      38.98      0          0
HENDRIC          433              S52              60.00      0.0140     17.36      17.24      0          0
439              S52              402              110.00     0.0140     17.24      16.63      0          0
442              S49              435              104.00     0.0140     19.61      18.70      0          0
443              435              433              480.00     0.0140     18.70      17.36      0          0
BIRCHWOOD        484              S49              160.00     0.0140     20.20      19.63      0          0
457              456              S2               435.00     0.0140     62.69      59.20      0          0
459              458              S9               300.00     0.0140     45.62      44.60      0          0
461              460              S13              375.00     0.0140     39.83      38.59      0          0
463              462              S14              375.00     0.0140     37.64      36.70      0          0
464              S15              200              320.00     0.0140     35.19      34.77      0          0
470              S42              S43              340.00     0.0140     16.42      15.81      0          0
471              S43              S44              250.00     0.0140     15.63      14.80      0          0
472              S44              S45              240.00     0.0140     14.68      14.16      0          0