;; SWMM5 .inp converted from XPSWMM .xp file
;; Generated by XPSWMM Card Reader
;; Source format: XP_CARD | Original title: AMAZON CREEK BASIN STORM DRAINAGE MODEL - FUTURE LAND USE

[TITLE]
;;Project Title/Notes
AMAZON CREEK BASIN STORM DRAINAGE MODEL - FUTURE LAND USE

[OPTIONS]
FLOW_UNITS           CFS
INFILTRATION         HORTON
FLOW_ROUTING         DYNWAVE
LINK_OFFSETS         DEPTH
MIN_SLOPE            0.0
ALLOW_PONDING        NO
SKIP_STEADY_STATE    NO
ROUTING_STEP         00:00:10
VARIABLE_STEP        0.75
INERTIAL_DAMPING     PARTIAL
NORMAL_FLOW_LIMITED  BOTH
MAX_TRIALS           100
HEAD_TOLERANCE       0.0033

[JUNCTIONS]
;;Name           Elev       MaxDepth   InitDepth  SurDepth   Aponded
;;-------------- ---------- ---------- ---------- ---------- ----------
71052            436.90     0          0          0          0
51964            434.50     0          0          0          0
51963            438.00     0          0          0          0
51344            456.00     0          0          0          0
51302            446.00     0          0          0          0
51303            444.00     0          0          0          0
68667            438.80     0          0          0          0
51305            443.60     0          0          0          0
51306            443.00     0          0          0          0
51307            438.00     0          0          0          0
51309            443.00     0          0          0          0
66460            438.00     0          0          0          0
54362            438.10     0          0          0          0
66967            438.20     0          0          0          0
51961            436.00     0          0          0          0
54175            435.10     0          0          0          0
54174            433.60     0          0          0          0
54172            431.80     0          0          0          0
54330            432.82     0          0          0          0
54353            431.97     0          0          0          0
66486            450.20     0          0          0          0
54335            431.82     0          0          0          0
54325            453.20     0          0          0          0
54271            463.60     0          0          0          0
54254            466.30     0          0          0          0
54295            447.00     0          0          0          0
54267            469.00     0          0          0          0
54260            483.80     0          0          0          0
51437            558.50     0          0          0          0
51411            535.90     0          0          0          0
66702            491.30     0          0          0          0
66485            439.80     0          0          0          0
54315            435.00     0          0          0          0
71053            429.20     0          0          0          0
71054            429.80     0          0          0          0
57163            425.50     0          0          0          0
57188            425.50     0          0          0          0
71057            425.00     0          0          0          0
66998            425.60     0          0          0          0
71059            425.00     0          0          0          0
71060            425.00     0          0          0          0
71061            424.50     0          0          0          0
71062            424.00     0          0          0          0
71063            423.30     0          0          0          0
71064            423.30     0          0          0          0
71065            423.00     0          0          0          0
71066            423.00     0          0          0          0
71067            424.20     0          0          0          0
71068            424.10     0          0          0          0
71069            423.40     0          0          0          0
71070            423.30     0          0          0          0
71071            430.20     0          0          0          0
71072            430.20     0          0          0          0
71073            421.50     0          0          0          0
71074            421.40     0          0          0          0
71075            419.50     0          0          0          0
71076            419.40     0          0          0          0
71077            422.00     0          0          0          0
71078            426.55     0          0          0          0
56048            431.84     0          0          0          0
66991            424.55     0          0          0          0
71079            414.50     0          0          0          0
71080            414.70     0          0          0          0
55256            417.00     0          0          0          0
71002            414.30     0          0          0          0
71003            414.30     0          0          0          0
53390            449.20     0          0          0          0
53388            448.80     0          0          0          0
53405            444.00     0          0          0          0
53457            429.00     0          0          0          0
53474            427.00     0          0          0          0
66476            425.10     0          0          0          0
52689            420.00     0          0          0          0
55290            416.86     0          0          0          0
53415            444.30     0          0          0          0
53422            457.50     0          0          0          0
53416            445.20     0          0          0          0
53426            445.40     0          0          0          0
68811            427.40     0          0          0          0
53408            459.30     0          0          0          0
53401            433.00     0          0          0          0
53447            432.00     0          0          0          0
53448            431.60     0          0          0          0
68813            432.70     0          0          0          0
52687            417.00     0          0          0          0
53400            432.80     0          0          0          0
53358            431.60     0          0          0          0
52707            453.00     0          0          0          0
52685            430.80     0          0          0          0
52686            417.50     0          0          0          0
55289            417.10     0          0          0          0
71004            412.90     0          0          0          0
71005            412.90     0          0          0          0
55274            410.00     0          0          0          0
52730            468.00     0          0          0          0
52733            445.20     0          0          0          0
52736            427.00     0          0          0          0
55382            416.00     0          0          0          0
55369            412.30     0          0          0          0
55396            411.90     0          0          0          0
55395            410.20     0          0          0          0
52573            477.20     0          0          0          0
52713            470.20     0          0          0          0
52716            438.20     0          0          0          0
68794            426.10     0          0          0          0
55272            410.70     0          0          0          0
55432            409.40     0          0          0          0
55446            408.20     0          0          0          0
71081            411.70     0          0          0          0
71082            411.60     0          0          0          0
55283            406.96     0          0          0          0
55294            406.40     0          0          0          0
55365            422.70     0          0          0          0
55344            405.90     0          0          0          0
68093            406.20     0          0          0          0
71083            405.30     0          0          0          0
71084            405.30     0          0          0          0
71007            404.10     0          0          0          0
71006            405.10     0          0          0          0
54741            402.70     0          0          0          0
71085            401.00     0          0          0          0
71086            403.00     0          0          0          0
71092            397.48     0          0          0          0
54898            408.50     0          0          0          0
54909            397.50     0          0          0          0
54811            396.90     0          0          0          0
66976            395.00     0          0          0          0
54747            395.00     0          0          0          0
54748            399.02     0          0          0          0
51995            453.20     0          0          0          0
51993            428.00     0          0          0          0
54809            411.60     0          0          0          0
68843            402.60     0          0          0          0
54489            401.10     0          0          0          0
54488            398.30     0          0          0          0
54486            394.60     0          0          0          0
63127            395.40     0          0          0          0
66971            397.00     0          0          0          0
54522            393.00     0          0          0          0
63126            395.82     0          0          0          0
63173            394.70     0          0          0          0
71099            393.10     0          0          0          0
71100            393.10     0          0          0          0
71122            395.30     0          0          0          0
71103            395.30     0          0          0          0
71106            390.80     0          0          0          0
71107            390.80     0          0          0          0
63032            388.51     0          0          0          0
71110            388.00     0          0          0          0
71111            388.00     0          0          0          0
71115            386.00     0          0          0          0
51313            441.90     0          0          0          0
51314            442.50     0          0          0          0
51311            441.00     0          0          0          0
53441            435.50     0          0          0          0
71087            423.11     0          0          0          0
71088            415.58     0          0          0          0
71089            412.98     0          0          0          0
71090            399.17     0          0          0          0
71091            398.72     0          0          0          0
71093            397.69     0          0          0          0
71094            397.20     0          0          0          0
71095            395.40     0          0          0          0
71096            395.00     0          0          0          0
71097            395.82     0          0          0          0
71098            392.97     0          0          0          0
71120            392.50     0          0          0          0
71104            391.38     0          0          0          0
71105            389.40     0          0          0          0
71123            385.63     0          0          0          0
71112            388.00     0          0          0          0
71113            386.00     0          0          0          0
71114            386.50     0          0          0          0
71125            431.56     0          0          0          0
71127            418.56     0          0          0          0
71128            431.00     0          0          0          0
71124            405.50     0          0          0          0
63178            386.40     0          0          0          0
69111            388.20     0          0          0          0
63042            390.10     0          0          0          0
65392            562.40     0          0          0          0
65295            534.80     0          0          0          0
66776            524.50     0          0          0          0
65344            521.10     0          0          0          0
66656            520.80     0          0          0          0
67175            520.80     0          0          0          0
65379            518.80     0          0          0          0
65396            476.40     0          0          0          0
65398            475.14     0          0          0          0
65370            465.10     0          0          0          0
65310            478.80     0          0          0          0
50602            519.00     0          0          0          0
50739            551.00     0          0          0          0
67978            460.80     0          0          0          0
50517            460.80     0          0          0          0
50544            452.10     0          0          0          0
66944            449.30     0          0          0          0
51850            449.50     0          0          0          0
66678            450.00     0          0          0          0
51763            452.00     0          0          0          0
50531            492.50     0          0          0          0
50660            502.20     0          0          0          0
51729            443.90     0          0          0          0
51730            443.50     0          0          0          0
51841            452.80     0          0          0          0
68653            455.00     0          0          0          0
51296            489.00     0          0          0          0
66447            494.20     0          0          0          0
51285            512.00     0          0          0          0
68670            524.70     0          0          0          0
68668            524.00     0          0          0          0
51271            524.00     0          0          0          0
51284            534.00     0          0          0          0
51256            541.00     0          0          0          0
51239            547.00     0          0          0          0
51204            590.90     0          0          0          0
50107            607.00     0          0          0          0
50163            631.40     0          0          0          0
50115            609.60     0          0          0          0
51757            440.80     0          0          0          0
51751            441.10     0          0          0          0
51750            441.10     0          0          0          0
71000            440.65     0          0          0          0
71001            440.55     0          0          0          0
71051            436.50     0          0          0          0
65533            474.00     0          0          0          0
10050            386.00     0          0          0          0
10004            384.00     0          0          0          0
10051            384.50     0          0          0          0
10052            384.50     0          0          0          0
10005            384.00     0          0          0          0
65582            663.00     0          0          0          0
65601            551.80     0          0          0          0
50200            546.00     0          0          0          0
50671            533.80     0          0          0          0
50653            490.50     0          0          0          0
50090            567.22     0          0          0          0
50238            564.50     0          0          0          0
50110            605.00     0          0          0          0
50109            605.00     0          0          0          0
66910            628.25     0          0          0          0
50108            628.25     0          0          0          0
50130            673.00     0          0          0          0
50129            675.20     0          0          0          0
71047            659.65     0          0          0          0
52167            588.00     0          0          0          0
68649            445.60     0          0          0          0
52213            435.00     0          0          0          0
67805            430.00     0          0          0          0
52214            472.60     0          0          0          0
52163            415.40     0          0          0          0
52255            414.00     0          0          0          0
66465            452.80     0          0          0          0
52240            439.20     0          0          0          0
52248            428.00     0          0          0          0
52243            421.00     0          0          0          0
54815            409.50     0          0          0          0
54773            407.00     0          0          0          0
52145            467.00     0          0          0          0
52217            441.00     0          0          0          0
52216            436.50     0          0          0          0
54772            406.00     0          0          0          0
10006            384.00     0          0          0          0
10063            385.00     0          0          0          0
71131            384.00     0          0          0          0
71132            384.00     0          0          0          0
10022            384.00     0          0          0          0
10023            380.00     0          0          0          0
71135            378.00     0          0          0          0
71136            378.00     0          0          0          0
10030            378.00     0          0          0          0
50629            457.00     0          0          0          0
51853            451.00     0          0          0          0
68846            410.50     0          0          0          0
57400            424.20     0          0          0          0
57422            424.00     0          0          0          0
57427            424.80     0          0          0          0
57436            424.70     0          0          0          0
56284            425.00     0          0          0          0
57433            423.80     0          0          0          0
57431            424.20     0          0          0          0
57428            424.80     0          0          0          0
54813            395.00     0          0          0          0
51469            447.20     0          0          0          0
54745            404.10     0          0          0          0
54776            399.00     0          0          0          0
54867            400.20     0          0          0          0
54854            402.00     0          0          0          0
99479            710.63     0          0          0          0
71008            476.70     0          0          0          0
71009            476.70     0          0          0          0
71048            468.10     0          0          0          0
71046            464.19     0          0          0          0
71045            463.00     0          0          0          0
71010            460.90     0          0          0          0
71011            458.00     0          0          0          0
71044            446.80     0          0          0          0
71012            460.40     0          0          0          0
71013            460.40     0          0          0          0
71043            447.50     0          0          0          0
71014            455.70     0          0          0          0
71015            454.70     0          0          0          0
71016            440.00     0          0          0          0
71017            444.33     0          0          0          0
71042            435.63     0          0          0          0
71041            422.00     0          0          0          0
51997            446.30     0          0          0          0
71018            400.55     0          0          0          0
71019            400.50     0          0          0          0
71036            400.00     0          0          0          0
71021            464.00     0          0          0          0
71022            453.10     0          0          0          0
71023            448.60     0          0          0          0
71024            437.20     0          0          0          0
71025            438.60     0          0          0          0
71026            432.20     0          0          0          0
71027            432.40     0          0          0          0
71028            421.60     0          0          0          0
71029            419.60     0          0          0          0
71050            427.10     0          0          0          0
71030            425.80     0          0          0          0
71031            425.80     0          0          0          0
71040            406.63     0          0          0          0
71034            404.63     0          0          0          0
71033            409.00     0          0          0          0
71035            400.10     0          0          0          0
71049            393.30     0          0          0          0
71037            392.80     0          0          0          0
71038            392.79     0          0          0          0
73500            407.40     0          0          0          0
73503            400.00     0          0          0          0
73502            399.50     0          0          0          0
73501            402.38     0          0          0          0
54495            408.20     0          0          0          0
54494            404.00     0          0          0          0
54462            404.00     0          0          0          0
10001            386.00     0          0          0          0
10002            386.50     0          0          0          0
10003            386.00     0          0          0          0
10007            384.00     0          0          0          0
10008            384.50     0          0          0          0
10009            384.00     0          0          0          0
10010            384.50     0          0          0          0
10011            384.00     0          0          0          0
10012            384.00     0          0          0          0
10013            384.50     0          0          0          0
10014            384.50     0          0          0          0
10021            384.00     0          0          0          0
10015            384.00     0          0          0          0
10016            384.00     0          0          0          0
10017            384.00     0          0          0          0
10018            384.50     0          0          0          0
10019            384.50     0          0          0          0
10020            384.00     0          0          0          0
10024            380.00     0          0          0          0
10025            380.00     0          0          0          0
10026            379.00     0          0          0          0
10027            378.00     0          0          0          0
10028            378.00     0          0          0          0
10029            378.00     0          0          0          0
10031            378.00     0          0          0          0
10053            384.50     0          0          0          0
10054            384.00     0          0          0          0
10055            384.00     0          0          0          0
10057            384.50     0          0          0          0
10056            384.00     0          0          0          0
10058            384.50     0          0          0          0
10059            384.00     0          0          0          0
10060            385.00     0          0          0          0
10061            386.00     0          0          0          0
10062            386.00     0          0          0          0
10064            386.00     0          0          0          0
10065            386.00     0          0          0          0
10066            387.00     0          0          0          0
10067            387.00     0          0          0          0
10068            389.00     0          0          0          0
10069            389.00     0          0          0          0
10070            382.00     0          0          0          0
10071            382.00     0          0          0          0
10072            380.00     0          0          0          0
10073            382.00     0          0          0          0
10074            382.00     0          0          0          0
10075            382.00     0          0          0          0
10076            380.00     0          0          0          0
10077            380.00     0          0          0          0
10078            384.50     0          0          0          0
10079            380.00     0          0          0          0

[STORAGE]
;;Name           Elev       MaxDepth   InitDepth  Shape      Curve/Params
;;-------------- ---------- ---------- ---------- ---------- ----------
51998            446.30     0          0          FUNCTIONAL 2500.00 0          0
71020            463.80     0          0          FUNCTIONAL 400.00 0          0
71032            409.10     0          0          FUNCTIONAL 2500.00 0          0

[CONDUITS]
;;Name           From             To               Length     Roughness  InOffset   OutOffset  InitFlow   MaxFlow
;;-------------- ---------------- ---------------- ---------- ---------- ---------- ---------- ---------- ----------
AMMD070A         AMMD070Ard       71052            1050.70    0.0150     428.80     425.97     0          0
AMMD070B         AMMD070Brd       51964            731.00     0.0140     433.20     428.80     0          0
AMMD080H         AMMD080Hrd       51302            710.00     0.0150     449.30     439.30     0          0
AMMD080G         AMMD080Grd       51303            288.00     0.0150     438.60     437.39     0          0
AMMD080A         AMMD080Ard       51963            150.00     0.0160     435.40     433.20     0          0
AMMD080I         AMMD080Ird       51305            472.70     0.0160     436.70     436.00     0          0
AMMD080J#1       AMMD080J#2       AMMD080Jrd       250.70     0.0140     436.00     435.50     0          0
AMMD080K#1       AMMD080K#2       AMMD080Krd       277.40     0.0140     435.50     433.60     0          0
AMMD080F         AMMD080Frd       51309            32.20      0.0190     437.40     437.25     0          0
AMMD080L         AMMD080Lrd       66460            164.00     0.0160     433.60     429.00     0          0
AMMD110B         AMMD110Brd       54362            772.40     0.0160     428.50     423.40     0          0
AMMD110A         AMMD110Ard       66967            1291.10    0.0140     423.40     420.00     0          0
AMMD080M         AMMD080Mrd       51961            387.80     0.0140     433.30     428.00     0          0
AMMD120A         AMMD120Ard       54175            2444.90    0.0150     428.00     421.02     0          0
MainMD120        71052            54175            700.00     0.0140     422.20     421.02     0          0
MainMD050        54175            54174            175.00     0.0140     421.02     420.23     0          0
MainMD110        54174            66967            150.00     0.0140     420.23     420.00     0          0
MainMD040        66967            54172            1300.00    0.0140     420.00     418.90     0          0
AMMD040D         AMMD040Drd       54335            1157.10    0.0150     435.70     423.90     0          0
AMMD040C         AMMD040Crd       54330            646.00     0.0180     423.90     422.85     0          0
AMMD040E         AMMD040Erd       66486            481.00     0.0150     444.20     436.35     0          0
AMMD040F         AMMD040Frd       54325            711.50     0.0160     455.10     444.20     0          0
AMMD040H         AMMD040Hrd       66486            383.90     0.0160     437.97     435.70     0          0
AMMD040I         AMMD040Ird       54295            1498.70    0.0150     445.50     437.97     0          0
AMMD040J         AMMD040Jrd       54267            482.20     0.0140     457.00     450.00     0          0
AMMD040G#1       AMMD040G#2       AMMD040Grd       231.70     0.0180     458.00     455.07     0          0
AMMD040K         AMMD040Krd       54254            638.80     0.0160     476.14     458.30     0          0
AMMD020C         AMMD020Crd       51411            526.30     0.0140     551.30     530.00     0          0
AMMD020B         AMMD020Brd       66702            1442.40    0.0140     530.00     483.70     0          0
AMMD020A         AMMD020Ard       54260            474.50     0.0150     483.70     476.20     0          0
AMMD040N         AMMD040Nrd       66485            777.00     0.0150     437.40     431.80     0          0
AMMD040M         AMMD040Mrd       54315            835.60     0.0140     431.80     424.80     0          0
AMMD040L         AMMD040Lrd       54330            612.00     0.0160     424.80     423.50     0          0
AMMD040A#1       AMMD040A#2       AMMD040Ard       961.30     0.0150     421.00     419.50     0          0
AMMD040B#1       AMMD040B#2       AMMD040Brd       486.00     0.0240     422.90     422.05     0          0
MainMD100B       54172            71053            650.00     0.0140     418.90     417.20     0          0
MainMD100A       71054            57163            1975.00    0.0140     414.70     410.80     0          0
MainMD030        57188            71057            350.00     0.0140     410.75     410.20     0          0