;; SWMM5 .inp converted from XPSWMM .xp file
;; Generated by XPSWMM Card Reader
;; Source format: XP_CARD | Original title: Jacks Run Input data

[TITLE]
;;Project Title/Notes
Jacks Run Input data

[OPTIONS]
FLOW_UNITS           CFS
INFILTRATION         HORTON
FLOW_ROUTING         DYNWAVE
LINK_OFFSETS         DEPTH
MIN_SLOPE            0.0
ALLOW_PONDING        NO
SKIP_STEADY_STATE    NO
ROUTING_STEP         00:00:02
VARIABLE_STEP        0.75
INERTIAL_DAMPING     NONE
NORMAL_FLOW_LIMITED  BOTH
MAX_TRIALS           30

[JUNCTIONS]
;;Name           Elev       MaxDepth   InitDepth  SurDepth   Aponded
;;-------------- ---------- ---------- ---------- ---------- ----------
0                725.00     0          0          0          0
0                725.00     0          0          0          0
0                723.00     0          0          0          0
0                727.00     0          0          0          0
0                725.00     0          0          0          0
0                722.00     0          0          0          0
0                729.00     0          0          0          0
0                730.50     0          0          0          0
0                731.00     0          0          0          0
0                732.02     0          0          0          0
0                740.83     0          0          0          0
0                744.00     0          0          0          0
0                746.65     0          0          0          0
0                742.88     0          0          0          0
0                748.77     0          0          0          0
0                756.88     0          0          0          0
0                761.06     0          0          0          0
0                763.67     0          0          0          0
0                766.92     0          0          0          0
0                767.00     0          0          0          0
0                770.00     0          0          0          0
0                770.75     0          0          0          0
0                775.49     0          0          0          0
0                778.00     0          0          0          0
0                782.50     0          0          0          0
0                780.00     0          0          0          0
0                788.25     0          0          0          0
0                784.50     0          0          0          0
0                790.25     0          0          0          0
0                792.00     0          0          0          0
0                781.73     0          0          0          0
0                788.01     0          0          0          0
0                725.00     0          0          0          0

[CONDUITS]
;;Name           From             To               Length     Roughness  InOffset   OutOffset  InitFlow   MaxFlow
;;-------------- ---------------- ---------------- ---------- ---------- ---------- ---------- ---------- ----------
201              0                0                11.00      0.0120     704.93     704.77     0          0
204              0                0                23.00      0.0120     705.26     704.93     0          0
206              0                0                23.00      0.0120     705.60     705.26     0          0
208              0                0                146.00     0.0120     707.42     705.60     0          0
210              0                0                203.00     0.0120     710.67     707.42     0          0
212              0                0                315.00     0.0120     717.38     710.67     0          0
214              0                0                76.00      0.0120     719.00     717.38     0          0
216              0                0                35.00      0.0120     722.50     719.00     0          0
218              0                0                192.00     0.0120     726.17     723.00     0          0
220              0                0                224.00     0.0120     731.82     726.17     0          0
222              0                0                53.00      0.0120     732.50     731.82     0          0
224              0                0                68.00      0.0140     735.66     732.50     0          0
226              0                0                241.00     0.0120     735.72     732.50     0          0
228              0                0                205.00     0.0120     739.72     735.72     0          0
230              0                0                273.00     0.0120     749.88     739.72     0          0
232              0                0                155.00     0.0120     753.31     749.88     0          0
234              0                0                112.00     0.0120     756.53     753.31     0          0
236              0                0                74.00      0.0120     759.72     756.53     0          0
238              0                0                23.00      0.0120     760.64     759.72     0          0
240              0                0                24.00      0.0130     761.16     760.64     0          0
242              0                0                94.00      0.0120     764.41     760.64     0          0
244              0                0                150.00     0.0120     765.54     764.41     0          0
246              0                0                120.00     0.0120     767.21     765.54     0          0
248              0                0                150.00     0.0100     768.80     767.21     0          0
250              0                0                132.00     0.0100     770.20     768.80     0          0
252              0                0                64.00      0.0100     772.48     770.20     0          0
254              0                0                58.00      0.0100     770.81     770.20     0          0
256              0                0                103.00     0.0130     771.90     770.81     0          0
258              0                0                103.00     0.0130     773.00     771.90     0          0
260              0                0                100.00     0.0140     776.20     774.00     0          0
262              0                0                191.00     0.0140     780.40     774.80     0          0

[ORIFICES]
;;Name           From             To               Type       Offset     Qcoeff     Gated    CloseTime
;;-------------- ---------------- ---------------- ---------- ---------- ---------- -------- ----------
202              0                0                SIDE       0          0.650      NO       0

[XSECTIONS]
;;Link           Shape        Geom1      Geom2      Geom3      Geom4      Barrels
;;-------------- ------------ ---------- ---------- ---------- ---------- ----------
201              CIRCULAR     2.00       0          0          0          1
204              CIRCULAR     2.00       0          0          0          1
206              CIRCULAR     2.00       0          0          0          1
208              CIRCULAR     2.00       0          0          0          1
210              CIRCULAR     2.00       0          0          0          1
212              CIRCULAR     2.00       0          0          0          1
214              CIRCULAR     2.00       0          0          0          1
216              CIRCULAR     2.00       0          0          0          1
218              CIRCULAR     2.00       0          0          0          1
220              CIRCULAR     2.00       0          0          0          1
222              CIRCULAR     2.00       0          0          0          1
224              CIRCULAR     0.83       0          0          0          1
226              CIRCULAR     2.00       0          0          0          1
228              CIRCULAR     2.00       0          0          0          1
230              CIRCULAR     2.00       0          0          0          1
232              CIRCULAR     2.00       0          0          0          1
234              CIRCULAR     2.00       0          0          0          1
236              CIRCULAR     2.00       0          0          0          1
238              CIRCULAR     2.00       0          0          0          1
240              CIRCULAR     1.33       0          0          0          1
242              CIRCULAR     2.00       0          0          0          1
244              CIRCULAR     2.00       0          0          0          1
246              CIRCULAR     2.00       0          0          0          1
248              CIRCULAR     2.00       0          0          0          1
250              CIRCULAR     2.00       0          0          0          1
252              CIRCULAR     0.83       0          0          0          1
254              CIRCULAR     2.00       0          0          0          1
256              CIRCULAR     2.00       0          0          0          1
258              CIRCULAR     2.00       0          0          0          1
260              CIRCULAR     1.50       0          0          0          1
262              CIRCULAR     1.50       0          0          0          1
202              RECT_CLOSED  0          0          0          0          

[LOSSES]
;;Link           Inlet      Outlet     Average    Flap Gate
;;-------------- ---------- ---------- ---------- ----------
201              0          0          0          NO
204              0          0          0          NO
206              0          0          0          NO
208              0          0          0          NO
210              0          0          0          NO
212              0          0          0          NO
214              0          0          0          NO
216              0          0          0          NO
218              0          0          0          NO
220              0          0          0          NO
222              0          0          0          NO
224              0          0          0          NO
226              0          0          0          NO
228              0          0          0          NO
230              0          0          0          NO
232              0          0          0          NO
234              0          0          0          NO
236              0          0          0          NO
238              0          0          0          NO
240              0          0          0          NO
242              0          0          0          NO
244              0          0          0          NO
246              0          0          0          NO
248              0          0          0          NO
250              0          0          0          NO
252              0          0          0          NO
254              0          0          0          NO
256              0          0          0          NO
258              0          0          0          NO
260              0          0          0          NO
262              0          0          0          NO

[COORDINATES]
;;Node           X-Coord            Y-Coord
;;-------------- ------------------ ------------------
0                -427049.62         1328515.67        
0                -427059.71         1328523.89        
0                -427028.75         1328524.58        
0                -427026.00         1328547.07        
0                -427125.03         1328654.03        
0                -427263.60         1328803.05        
0                -427577.51         1328826.06        
0                -427624.15         1328885.75        
0                -427635.26         1328918.72        
0                -427756.06         1329069.45        
0                -427895.16         1329247.60        
0                -427895.26         1329248.10        
0                -427895.36         1329248.20        
0                -427890.18         1329542.61        
0                -427960.96         1329733.96        
0                -428235.13         1329730.71        
0                -428386.33         1329749.04        
0                -428471.69         1329825.63        
0                -428516.02         1329885.34        
0                -428516.02         1329885.34        
0                -428515.82         1329884.64        
0                -428583.25         1329981.29        
0                -428694.86         1330080.96        
0                -428844.51         1330148.01        
0                -428992.52         1330121.40        
0                -429115.90         1330073.40        
0                -429162.13         1330028.61        
0                -429173.58         1330073.40        
0                -429270.72         1330109.03        
0                -429365.98         1330148.43        
0                -429456.47         1330189.01        
0                -429535.19         1330237.21        
0                -427059.81         1328523.69        

[MAP]
DIMENSIONS -429535.19 1328515.67 -427026.00 1330237.21
Units      None

[REPORT]
INPUT            YES
SUBCATCHMENTS    ALL
NODES            ALL
LINKS            ALL



