;; SWMM5 .inp converted from XPSWMM .xp file
;; Generated by XPSWMM Card Reader
;; Source format: XP_CARD | Original title: The City of Toledo -- Swan Creek and West Side Interceptors

[TITLE]
;;Project Title/Notes
The City of Toledo -- Swan Creek and West Side Interceptors

[OPTIONS]
FLOW_UNITS           CFS
INFILTRATION         HORTON
FLOW_ROUTING         DYNWAVE
LINK_OFFSETS         DEPTH
MIN_SLOPE            0.0
ALLOW_PONDING        NO
SKIP_STEADY_STATE    NO
ROUTING_STEP         00:00:10
VARIABLE_STEP        0.75
INERTIAL_DAMPING     PARTIAL
NORMAL_FLOW_LIMITED  BOTH
HEAD_TOLERANCE       0.0033

[JUNCTIONS]
;;Name           Elev       MaxDepth   InitDepth  SurDepth   Aponded
;;-------------- ---------- ---------- ---------- ---------- ----------
0                602.07     0          0          0          0
0                616.80     0          0          0          0
0                614.14     0          0          0          0
0                613.90     0          0          0          0
0                615.10     0          0          0          0
0                601.40     0          0          0          0
0                614.10     0          0          0          0
0                591.40     0          0          0          0
0                607.35     0          0          0          0
0                611.12     0          0          0          0
0                585.50     0          0          0          0
0                576.21     0          0          0          0
0                613.90     0          0          0          0
0                616.30     0          0          0          0
0                615.10     0          0          0          0
0                614.90     0          0          0          0
0                609.61     0          0          0          0
0                590.80     0          0          0          0
0                594.10     0          0          0          0
0                585.75     0          0          0          0
0                585.14     0          0          0          0
0                591.04     0          0          0          0
0                584.13     0          0          0          0
0                584.13     0          0          0          0
0                580.00     0          0          0          0
0                584.13     0          0          0          0
0                584.00     0          0          0          0
0                585.50     0          0          0          0
0                584.00     0          0          0          0
0                584.13     0          0          0          0
0                587.00     0          0          0          0
0                593.00     0          0          0          0
0                593.00     0          0          0          0
0                593.00     0          0          0          0
0                593.00     0          0          0          0
0                594.00     0          0          0          0
0                594.00     0          0          0          0
0                580.00     0          0          0          0
0                591.40     0          0          0          0
0                591.40     0          0          0          0
0                591.40     0          0          0          0
0                610.00     0          0          0          0
0                610.00     0          0          0          0
0                610.00     0          0          0          0
0                610.00     0          0          0          0
0                606.00     0          0          0          0
0                609.00     0          0          0          0
0                606.00     0          0          0          0
0                606.00     0          0          0          0
0                610.00     0          0          0          0
0                580.00     0          0          0          0
0                606.00     0          0          0          0
0                595.00     0          0          0          0
0                595.00     0          0          0          0
0                596.75     0          0          0          0
0                596.75     0          0          0          0
0                596.75     0          0          0          0
0                595.00     0          0          0          0
0                618.00     0          0          0          0
0                618.00     0          0          0          0
0                586.00     0          0          0          0
0                586.00     0          0          0          0
0                585.00     0          0          0          0
0                586.00     0          0          0          0
0                585.00     0          0          0          0
0                585.00     0          0          0          0
0                613.18     0          0          0          0
0                608.51     0          0          0          0
0                608.51     0          0          0          0
0                608.51     0          0          0          0
0                594.00     0          0          0          0
0                613.18     0          0          0          0
0                613.18     0          0          0          0
0                616.09     0          0          0          0
0                587.00     0          0          0          0
0                586.00     0          0          0          0
0                586.00     0          0          0          0
0                581.30     0          0          0          0
0                594.00     0          0          0          0
0                586.00     0          0          0          0
0                585.00     0          0          0          0
0                585.00     0          0          0          0
0                603.00     0          0          0          0
0                602.07     0          0          0          0
0                602.07     0          0          0          0
0                602.07     0          0          0          0
0                602.00     0          0          0          0
0                590.00     0          0          0          0
0                610.00     0          0          0          0
0                591.00     0          0          0          0
0                591.00     0          0          0          0
0                591.00     0          0          0          0
0                584.00     0          0          0          0
0                584.00     0          0          0          0
0                584.00     0          0          0          0
0                600.00     0          0          0          0
0                586.00     0          0          0          0
0                587.60     0          0          0          0
0                585.52     0          0          0          0
0                612.07     0          0          0          0
0                593.09     0          0          0          0
0                594.16     0          0          0          0
0                596.99     0          0          0          0
0                600.14     0          0          0          0
0                601.04     0          0          0          0
0                601.79     0          0          0          0
0                604.17     0          0          0          0
0                605.55     0          0          0          0
0                607.25     0          0          0          0
0                603.95     0          0          0          0
0                600.08     0          0          0          0
0                599.95     0          0          0          0
0                597.98     0          0          0          0
0                597.34     0          0          0          0
0                596.17     0          0          0          0
0                593.42     0          0          0          0
0                594.66     0          0          0          0
0                593.09     0          0          0          0
0                590.23     0          0          0          0
0                590.81     0          0          0          0
0                588.34     0          0          0          0
0                588.29     0          0          0          0
0                584.10     0          0          0          0
0                585.16     0          0          0          0
0                589.16     0          0          0          0
0                607.51     0          0          0          0
0                609.76     0          0          0          0
0                600.88     0          0          0          0
0                589.08     0          0          0          0
0                586.16     0          0          0          0
0                583.67     0          0          0          0
0                614.15     0          0          0          0
0                616.19     0          0          0          0
0                612.32     0          0          0          0
0                612.06     0          0          0          0
0                604.52     0          0          0          0
0                589.08     0          0          0          0
0                586.16     0          0          0          0
0                586.16     0          0          0          0
0                586.16     0          0          0          0
0                586.16     0          0          0          0
0                614.15     0          0          0          0
0                614.15     0          0          0          0
0                614.15     0          0          0          0
0                579.00     0          0          0          0
0                587.41     0          0          0          0
0                587.41     0          0          0          0
0                587.41     0          0          0          0
0                582.89     0          0          0          0
0                582.89     0          0          0          0
0                582.89     0          0          0          0
0                582.70     0          0          0          0
0                595.99     0          0          0          0
0                595.99     0          0          0          0
0                584.16     0          0          0          0
0                584.16     0          0          0          0
0                584.16     0          0          0          0
0                584.16     0          0          0          0
0                589.46     0          0          0          0
0                589.46     0          0          0          0
0                589.46     0          0          0          0
0                584.18     0          0          0          0
0                584.18     0          0          0          0
0                584.18     0          0          0          0
0                579.00     0          0          0          0
0                578.00     0          0          0          0
0                589.80     0          0          0          0
0                589.80     0          0          0          0
0                587.07     0          0          0          0
0                592.96     0          0          0          0
0                592.96     0          0          0          0
0                587.07     0          0          0          0
0                587.07     0          0          0          0
0                587.07     0          0          0          0
0                587.07     0          0          0          0
0                580.00     0          0          0          0
0                580.00     0          0          0          0
0                589.80     0          0          0          0
0                592.96     0          0          0          0
0                603.60     0          0          0          0
0                603.60     0          0          0          0
0                603.60     0          0          0          0
0                586.07     0          0          0          0
0                586.07     0          0          0          0
0                586.07     0          0          0          0
0                580.00     0          0          0          0
0                601.13     0          0          0          0
0                601.13     0          0          0          0
0                601.13     0          0          0          0
0                601.13     0          0          0          0
0                601.13     0          0          0          0
0                589.56     0          0          0          0
0                589.56     0          0          0          0
0                589.56     0          0          0          0
0                589.56     0          0          0          0
0                589.56     0          0          0          0
0                589.56     0          0          0          0
0                593.64     0          0          0          0
0                587.50     0          0          0          0
0                587.50     0          0          0          0
0                587.50     0          0          0          0
0                587.50     0          0          0          0
0                587.50     0          0          0          0
0                587.50     0          0          0          0
0                593.46     0          0          0          0
0                593.46     0          0          0          0
0                593.46     0          0          0          0
0                593.46     0          0          0          0
0                593.46     0          0          0          0
0                592.70     0          0          0          0
0                578.00     0          0          0          0
0                586.00     0          0          0          0
0                581.16     0          0          0          0
0                608.00     0          0          0          0
0                618.00     0          0          0          0
0                615.00     0          0          0          0
0                614.00     0          0          0          0
0                600.00     0          0          0          0
0                590.00     0          0          0          0
0                590.00     0          0          0          0
0                585.00     0          0          0          0

[STORAGE]
;;Name           Elev       MaxDepth   InitDepth  Shape      Curve/Params
;;-------------- ---------- ---------- ---------- ---------- ----------
0                595.00     0          0          FUNCTIONAL 0 0          0
0                596.00     0          0          FUNCTIONAL 0 0          0
0                583.10     0          0          FUNCTIONAL 0 0          0
0                581.16     0          0          FUNCTIONAL 0 0          0

[CONDUITS]
;;Name           From             To               Length     Roughness  InOffset   OutOffset  InitFlow   MaxFlow
;;-------------- ---------------- ---------------- ---------- ---------- ---------- ---------- ---------- ----------
203              0                0                838.00     0.0150     570.77     570.20     0          0
204              0                0                433.00     0.0150     570.20     568.30     0          0
209              0                0                303.00     0.0150     568.05     568.65     0          0
211              0                0                890.00     0.0150     568.65     566.55     0          0
223              0                0                1366.00    0.0150     561.50     560.54     0          0
228              0                0                1352.00    0.0150     562.50     561.71     0          0
207              0                0                486.00     0.0150     568.30     569.70     0          0
235              0                0                826.00     0.0150     569.70     569.05     0          0
237              0                0                634.00     0.0150     569.05     568.05     0          0
213              0                0                971.00     0.0150     566.55     566.00     0          0
240              0                0                951.00     0.0150     566.00     566.20     0          0
215              0                0                1090.00    0.0150     566.20     564.55     0          0
243              0                0                1984.00    0.0150     564.55     563.56     0          0
245              0                0                1174.00    0.0150     563.56     562.10     0          0
250              0                0                614.00     0.0150     560.65     561.50     0          0
226              0                0                900.00     0.0150     560.54     560.70     0          0
253              0                0                867.00     0.0150     560.70     562.50     0          0
257              0                0                257.00     0.0150     569.25     569.09     0          0
258              0                0                528.00     0.0150     569.09     568.64     0          0
260              0                0                718.00     0.0150     568.64     568.05     0          0
266              0                0                300.00     0.0160     573.61     573.01     0          0
267              0                0                60.00      0.0160     573.01     572.89     0          0
273              0                0                170.00     0.0160     572.89     572.55     0          0
271              0                0                40.00      0.0150     571.50     571.34     0          0
279              0                0                524.00     0.0150     571.34     569.97     0          0
283              0                0                312.00     0.0150     569.97     569.00     0          0
286              0                0                500.00     0.0150     573.48     573.10     0          0
292              0                0                92.00      0.0150     573.10     571.87     0          0
299              0                0                104.00     0.0150     571.74     571.36     0          0
294              0                0                32.00      0.0150     569.63     568.17     0          0
304              0                0                500.00     0.0150     573.67     572.42     0          0
307              0                0                8.00       0.0150     571.25     568.01     0          0
310              0                0                500.00     0.0160     581.10     579.10     0          0
325              0                0                17.20      0.0150     565.37     565.31     0          0
315              0                0                40.00      0.0160     579.10     578.25     0          0
343              0                0                22.40      0.0150     570.65     570.57     0          0
323              0                0                468.70     0.0150     570.28     568.14     0          0
348              0                0                987.70     0.0150     568.14     565.37     0          0
355              0                0                170.00     0.0160     578.00     572.00     0          0
362              0                0                480.00     0.0150     575.51     574.07     0          0
363              0                0                165.00     0.0150     574.07     573.25     0          0
370              0                0                400.00     0.0150     577.45     576.25     0          0
372              0                0                21.00      0.0150     574.00     573.50     0          0
30"              36"              0                175.00     0.0150     562.31     552.27     0          0
367              0                0                364.00     0.0150     573.25     571.09     0          0
388              0                0                500.00     0.0150     575.80     575.20     0          0
389              0                0                1225.00    0.0150     575.20     573.73     0          0
396              0                0                35.00      0.0150     573.73     573.30     0          0
16" A            16" B            0                95.50      0.0150     571.74     562.74     0          0
415              0                0                209.55     0.0160     582.61     578.00     0          0
428              0                0                722.00     0.0150     555.04     551.42     0          0
432              0                0                100.00     0.0150     551.40     550.62     0          0
438              0                0                300.00     0.0160     578.59     576.34     0          0
443              0                0                200.00     0.0150     551.70     551.44     0          0
449              0                0                1320.00    0.0150     575.35     573.22     0          0
441              0                0                120.00     0.0160     576.34     574.80     0          0
453              0                0                324.00     0.0150     570.72     568.43     0          0
453              0                0                280.00     0.0160     574.80     572.66     0          0
445              0                0                1009.00    0.0150     551.44     550.31     0          0
459              0                0                150.00     0.0160     589.48     589.25     0          0
462              0                0                50.00      0.0150     587.46     585.00     0          0
465              0                0                280.00     0.0160     589.25     583.35     0          0
434              0                0                170.00     0.0150     567.17     567.58     0          0
471              0                0                330.00     0.0160     582.57     581.25     0          0
476              0                0                224.00     0.0150     581.25     574.80     0          0
480              0                0                1738.04    0.0150     557.03     553.44     0          0
474              0                0                480.00     0.0150     581.00     574.25     0          0
485              0                0                373.00     0.0150     573.26     572.02     0          0
478              0                0                36.00      0.0160     574.50     573.71     0          0
RETURN42         0                0                350.00     0.0150     571.67     568.00     0          0
RETURN43         0                0                15.00      0.0150     570.58     569.53     0          0
RETURN45         0                0                40.00      0.0110     578.10     571.41     0          0
20" GATE         20" FREE         0                8.00       0.0150     573.30     573.00     0          0
498              0                0                50.00      0.0150     573.00     572.14     0          0
RETURN46         0                0                228.00     0.0150     574.37     569.00     0          0
230              0                0                1350.00    0.0150     559.73     559.40     0          0
502              0                0                585.00     0.0150     559.40     559.07     0          0
506              0                0                660.00     0.0150     559.07     558.62     0          0
512              0                0                590.00     0.0150     558.12     557.79     0          0
514              0                0                540.00     0.0150     557.79     557.59     0          0
516              0                0                530.00     0.0150     557.59     557.39     0          0
520              0                0                530.00     0.0150     557.39     557.24     0          0
524              0                0                1570.00    0.0150     556.99     556.04     0          0
530              0                0                950.00     0.0150     555.89     555.47     0          0
532              0                0                1175.00    0.0150     555.47     555.15     0          0
534              0                0                1020.00    0.0150     555.15     554.55     0          0
536              0                0                830.00     0.0150     554.55     554.30     0          0
538              0                0                1010.00    0.0150     554.30     554.25     0          0
540              0                0                1010.00    0.0150     554.25     553.80     0          0
542              0                0                1000.00    0.0150     553.80     553.23     0          0
544              0                0                610.00     0.0150     553.23     552.64     0          0
546              0                0                780.00     0.0150     552.64     552.22     0          0
548              0                0                890.00     0.0150     552.22     551.77     0          0
550              0                0                1390.00    0.0150     551.77     551.31     0          0
552              0                0                1000.00    0.0150     551.31     551.03     0          0
554              0                0                1380.00    0.0150     551.03     550.18     0          0
556              0                0                920.00     0.0150     550.18     550.02     0          0
558              0                0                960.00     0.0150     550.02     549.33     0          0
560              0                0                880.00     0.0150     549.33     549.29     0          0
562              0                0                1000.00    0.0150     549.29     548.58     0          0
568              0                0                610.00     0.0150     572.22     571.29     0          0
569              0                0                720.00     0.0150     571.29     570.31     0          0
571              0                0                450.00     0.0150     569.81     568.91     0          0
573              0                0                760.00     0.0150     568.91     568.58     0          0
575              0                0                300.00     0.0160     568.08     566.86     0          0
579              0                0                35.00      0.0160     563.66     563.47     0          0
581              0                0                50.00      0.0160     563.47     561.16     0          0
584              0                0                680.00     0.0140     583.95     583.39     0          0
585              0                0                1320.00    0.0140     583.39     580.72     0          0
587              0                0                1350.00    0.0140     580.72     576.46     0          0
589              0                0                1150.00    0.0140     576.46     573.30     0          0
591              0                0                1350.00    0.0140     573.30     570.31     0          0
14"a             12"a             0                82.00      0.0140     565.74     551.76     0          0
14"b             12"b             0                95.00      0.0140     551.76     551.51     0          0
601              0                0                200.00     0.0160     573.40     572.90     0          0
605              0                0                228.00     0.0160     572.90     572.33     0          0
609              0                0                500.00     0.0160     588.37     587.87     0          0
617              0                0                154.00     0.0150     563.70     566.00     0          0
620              0                0                500.00     0.0160     574.42     574.17     0          0
623              0                0                37.50      0.0150     549.07     548.92     0          0
621              0                0                720.00     0.0160     574.17     573.75     0          0
631              0                0                274.00     0.0160     573.75     572.38     0          0
RETURN31         0                0                200.00     0.0150     572.04     570.44     0          0
650              0                0                500.00     0.0160     574.90     573.80     0          0
651              0                0                760.00     0.0160     573.80     573.10     0          0
RETURN30         0                0                120.00     0.0150     571.16     570.20     0          0
658              0                0                380.00     0.0160     573.10     571.08     0          0
663              0                0                500.00     0.0160     574.50     573.67     0          0
666              0                0                30.00      0.0150     548.19     548.07     0          0
664              0                0                760.00     0.0160     573.67     572.89     0          0
RETURN29         0                0                80.00      0.0150     570.17     569.69     0          0
676              0                0                140.00     0.0160     572.89     572.66     0          0
682              0                0                500.00     0.0160     578.00     574.00     0          0
683              0                0                850.00     0.0160     574.00     573.05     0          0
687              0                0                500.00     0.0160     573.36     572.91     0          0