;; SWMM5 .inp converted from XPSWMM .xp file
;; Generated by XPSWMM Card Reader
;; Source format: XP_CARD | Original title: FORT WAYNE CSO IMPACT CHARACT. STUDY    C:\XPS\..\FW927.XP

[TITLE]
;;Project Title/Notes
FORT WAYNE CSO IMPACT CHARACT. STUDY    C:\XPS\..\FW927.XP

[OPTIONS]
FLOW_UNITS           CFS
INFILTRATION         HORTON
FLOW_ROUTING         DYNWAVE
LINK_OFFSETS         DEPTH
MIN_SLOPE            0.0
ALLOW_PONDING        NO
SKIP_STEADY_STATE    NO
ROUTING_STEP         00:00:05
VARIABLE_STEP        0.75
INERTIAL_DAMPING     PARTIAL
NORMAL_FLOW_LIMITED  BOTH
MAX_TRIALS           50

[JUNCTIONS]
;;Name           Elev       MaxDepth   InitDepth  SurDepth   Aponded
;;-------------- ---------- ---------- ---------- ---------- ----------
M06711           763.20     0          0          0          0
R46011           765.00     0          0          0          0
M14085           754.97     0          0          0          0
M10310           756.60     0          0          0          0
Reg12            756.59     0          0          0          0
M10251           755.80     0          0          0          0
M10250           758.20     0          0          0          0
M10130           754.57     0          0          0          0
M10127           755.08     0          0          0          0
M10121           757.20     0          0          0          0
M10120           755.60     0          0          0          0
L06087           755.50     0          0          0          0
L06438           766.30     0          0          0          0
L06040           766.71     0          0          0          0
M06055           770.60     0          0          0          0
N06007           784.10     0          0          0          0
K06290           767.30     0          0          0          0
N14360           754.00     0          0          0          0
O06017           770.85     0          0          0          0
P06119           768.50     0          0          0          0
O10241           747.50     0          0          0          0
O10240           747.50     0          0          0          0
O10239           747.00     0          0          0          0
O10101           747.03     0          0          0          0
P06014(R7)       754.80     0          0          0          0
P10037           749.00     0          0          0          0
P10034           749.30     0          0          0          0
P10033           749.50     0          0          0          0
Q10062           750.00     0          0          0          0
Q10061           745.10     0          0          0          0
Q06059           750.00     0          0          0          0
Q06061           745.00     0          0          0          0
Q06060           748.00     0          0          0          0
Q06058           749.13     0          0          0          0
Q06050           750.00     0          0          0          0
Q06037           751.00     0          0          0          0
Q06002           753.50     0          0          0          0
Q14154           760.00     0          0          0          0
Q14025           760.00     0          0          0          0
Q10060(R5)       745.00     0          0          0          0
K02051           761.74     0          0          0          0
P50009           778.00     0          0          0          0
L18129           766.20     0          0          0          0
L18088           762.60     0          0          0          0
M18272           756.20     0          0          0          0
M18261           766.10     0          0          0          0
M18260           766.00     0          0          0          0
M18256           755.30     0          0          0          0
M18237           765.07     0          0          0          0
M18010           764.00     0          0          0          0
M18232           762.50     0          0          0          0
M18231           763.00     0          0          0          0
N18183           765.00     0          0          0          0
M22135           765.00     0          0          0          0
N18182           758.10     0          0          0          0
N22146           752.10     0          0          0          0
N22147           760.00     0          0          0          0
N22016           775.01     0          0          0          0
N26203           771.60     0          0          0          0
N26202           773.26     0          0          0          0
S02008           754.10     0          0          0          0
O22059           753.30     0          0          0          0
O22058           753.20     0          0          0          0
O26013           763.00     0          0          0          0
R06001           745.50     0          0          0          0
U14042           775.00     0          0          0          0
V14003           776.00     0          0          0          0
J22054           776.40     0          0          0          0
Q26015           764.00     0          0          0          0
Q26011           771.50     0          0          0          0
P30011           763.50     0          0          0          0
Q34023           780.50     0          0          0          0
Q38055           766.00     0          0          0          0
Q42065           759.00     0          0          0          0
Q42064           760.00     0          0          0          0
P34101           765.00     0          0          0          0
N30190           775.00     0          0          0          0
N30193           774.50     0          0          0          0
N30186           775.50     0          0          0          0
K26001           787.00     0          0          0          0
K30047           797.00     0          0          0          0
K30019           787.00     0          0          0          0
J34002           798.00     0          0          0          0
J34001           799.50     0          0          0          0
J38012           802.50     0          0          0          0
J38005           802.50     0          0          0          0
J38004           800.50     0          0          0          0
V10001           740.50     0          0          0          0
I18051           784.80     0          0          0          0
I18031           783.00     0          0          0          0
I18032           783.00     0          0          0          0
I18012           782.90     0          0          0          0
I34019           814.00     0          0          0          0
H18028           789.00     0          0          0          0
P30001           763.00     0          0          0          0
P30010           764.50     0          0          0          0
P30005           760.50     0          0          0          0
P30004           757.50     0          0          0          0
N58027           798.00     0          0          0          0
P54003           789.50     0          0          0          0
P46004           774.00     0          0          0          0
P66001           826.00     0          0          0          0
L58008           817.00     0          0          0          0
X30001           779.15     0          0          0          0
S23024           768.00     0          0          0          0
R19074           774.00     0          0          0          0
S19006           767.90     0          0          0          0
T14038           763.00     0          0          0          0
T14065           759.50     0          0          0          0
T10006           757.00     0          0          0          0
T10007           757.50     0          0          0          0
R27014           770.70     0          0          0          0
T02006           753.30     0          0          0          0
X22045           773.42     0          0          0          0
X22046           772.39     0          0          0          0
X26001           775.14     0          0          0          0
X18001           762.26     0          0          0          0
X18037           762.26     0          0          0          0
W18003           774.00     0          0          0          0
J42005           813.00     0          0          0          0
U02022           760.60     0          0          0          0
U05004           762.30     0          0          0          0
U02015           762.90     0          0          0          0
T06006           740.10     0          0          0          0
S06002           746.00     0          0          0          0
S06003           744.60     0          0          0          0
V11005           759.10     0          0          0          0
W10005           765.30     0          0          0          0
T46008           774.50     0          0          0          0
S46002           767.00     0          0          0          0
S46003           774.60     0          0          0          0
J46004           825.00     0          0          0          0
K58001           820.00     0          0          0          0
U15004           765.50     0          0          0          0
S15012           768.50     0          0          0          0
K66003           846.10     0          0          0          0
T54008           776.00     0          0          0          0
T54004           764.00     0          0          0          0
U54008           769.50     0          0          0          0
U54006           770.00     0          0          0          0
S50002           765.60     0          0          0          0
R50005           764.50     0          0          0          0
R50074           774.50     0          0          0          0
Reg8             768.93     0          0          0          0
Reg8-OR1         768.93     0          0          0          0
Reg8-W1          768.93     0          0          0          0
Reg8-OUT         768.93     0          0          0          0
P06124           768.93     0          0          0          0
Reg11            780.00     0          0          0          0
Reg11-OR1        780.00     0          0          0          0
Reg11-W1         780.00     0          0          0          0
Reg11-OUT        780.00     0          0          0          0
N06102           780.00     0          0          0          0
Reg3             756.00     0          0          0          0
Reg3-OR1         756.00     0          0          0          0
Reg12C           760.00     0          0          0          0
Reg12C-W1        760.00     0          0          0          0
Reg12C-OUT       760.00     0          0          0          0
L06112           760.00     0          0          0          0
Reg15-1          760.00     0          0          0          0
K06066           760.00     0          0          0          0
Reg15-W1         760.00     0          0          0          0
Reg15-OUT        760.00     0          0          0          0
Reg15            760.00     0          0          0          0
Reg14-OR1        753.07     0          0          0          0
Reg15-OR1        760.00     0          0          0          0
R14075           780.00     0          0          0          0
Reg30            780.00     0          0          0          0
R14033           780.00     0          0          0          0
Reg31            785.00     0          0          0          0
Reg31-W1         783.00     0          0          0          0
Reg31-OUT        783.00     0          0          0          0
Reg30-W1         780.00     0          0          0          0
Reg30-OUT        780.00     0          0          0          0
R18182           780.00     0          0          0          0
S18081           787.00     0          0          0          0
Q06038           750.00     0          0          0          0
Reg4             750.00     0          0          0          0
Reg4-OUT         750.00     0          0          0          0
Reg10            760.00     0          0          0          0
Reg10-W1         760.00     0          0          0          0
Reg10-OUT        760.00     0          0          0          0
O10295           760.00     0          0          0          0
Reg10-OR1        760.00     0          0          0          0
Reg14            753.07     0          0          0          0
K06250           753.07     0          0          0          0
Reg12A           758.00     0          0          0          0
Reg12B           763.20     0          0          0          0
L06086           755.50     0          0          0          0
Reg12D           755.50     0          0          0          0
L06079           756.80     0          0          0          0
Reg12E           755.00     0          0          0          0
Reg12F           752.40     0          0          0          0
L06172           760.00     0          0          0          0
L06140           755.00     0          0          0          0
L06069           756.70     0          0          0          0
M10252           755.80     0          0          0          0
M10237           755.00     0          0          0          0
LS23-W1          755.00     0          0          0          0
M10234           755.00     0          0          0          0
Reg12A-W2        758.00     0          0          0          0
Reg12A-OUT       758.00     0          0          0          0
Reg12-OR1        756.59     0          0          0          0
M06251           758.00     0          0          0          0
Reg12A-OR1       758.20     0          0          0          0
R12&12AOUT       750.00     0          0          0          0
R12B-W1          763.20     0          0          0          0
R12B-OR1         763.20     0          0          0          0
R12B-OUT         763.20     0          0          0          0
M06098           763.20     0          0          0          0
R12D-W1          755.50     0          0          0          0
R12D-OUT         755.50     0          0          0          0
R12E-OR1         755.00     0          0          0          0
R12F-OUT         752.40     0          0          0          0
Reg24-W1         755.00     0          0          0          0
Reg24-OUT        755.00     0          0          0          0
L18064           755.00     0          0          0          0
Reg24            755.00     0          0          0          0
N22092           763.11     0          0          0          0
Reg26            763.90     0          0          0          0
Reg26A           762.80     0          0          0          0
Reg26-OUT        763.00     0          0          0          0
Reg26A-OUT       762.00     0          0          0          0
N22101           763.00     0          0          0          0
Reg35            776.25     0          0          0          0
M18271           758.00     0          0          0          0
Reg34A           763.70     0          0          0          0
O22092           760.74     0          0          0          0
O22071           764.74     0          0          0          0
Reg35-OUT        765.00     0          0          0          0
Reg34            760.80     0          0          0          0
P22157           776.00     0          0          0          0
O22100           762.00     0          0          0          0
Reg34-OUT        760.00     0          0          0          0
Reg34-W1         761.00     0          0          0          0
Reg34A-W1        763.00     0          0          0          0
Reg34A-OUT       763.00     0          0          0          0
Reg35-W1         776.00     0          0          0          0
Reg28            758.00     0          0          0          0
Reg28-W1         758.00     0          0          0          0
Reg28-OUT        758.00     0          0          0          0
LS23/DISCH       758.00     0          0          0          0
Reg23-OR1        754.00     0          0          0          0
Reg23            754.00     0          0          0          0
Reg23-OUT        754.00     0          0          0          0
M10101           754.00     0          0          0          0
LS22/DISCH       759.57     0          0          0          0
M10140           754.00     0          0          0          0
LS10/OUT1        751.00     0          0          0          0
J66008           851.00     0          0          0          0
P66038           822.00     0          0          0          0
T58003           785.50     0          0          0          0
T58007           786.00     0          0          0          0
S58003           787.50     0          0          0          0
V46001           784.00     0          0          0          0
O38175           798.90     0          0          0          0
R26001           779.50     0          0          0          0
Q34003           781.00     0          0          0          0
R34042           774.70     0          0          0          0
N34201           799.57     0          0          0          0
H30006           831.00     0          0          0          0
H34012           819.50     0          0          0          0
L42009           826.50     0          0          0          0
L38009           806.70     0          0          0          0
L34023           812.00     0          0          0          0
V34032           804.06     0          0          0          0
V34016           802.04     0          0          0          0
T14015           775.00     0          0          0          0
T14018           775.40     0          0          0          0
T14011           774.00     0          0          0          0
R18002           780.00     0          0          0          0
W02011           763.00     0          0          0          0
Reg4-OR1         750.00     0          0          0          0
SWB4             745.00     0          0          0          0
SWB5             748.00     0          0          0          0
SWB3             742.00     0          0          0          0
SWB2             756.00     0          0          0          0
SWB1             756.00     0          0          0          0
SWFINFLOW        755.25     0          0          0          0
Reg9             760.00     0          0          0          0
Reg9-OUT         750.00     0          0          0          0
Reg9-OR1         765.00     0          0          0          0
LS10-W1          747.00     0          0          0          0
LS10/OUT2        751.00     0          0          0          0
O10090           747.00     0          0          0          0
O10082           747.00     0          0          0          0
LS10-W3          747.00     0          0          0          0
LS10/OUT3        756.08     0          0          0          0
LS10/OUT4        756.00     0          0          0          0
Reg13            766.30     0          0          0          0
L06293           768.00     0          0          0          0
LS22-OUT         759.00     0          0          0          0
LS23-OUT         756.00     0          0          0          0
LS23-S           758.00     0          0          0          0
LS23-S2          758.00     0          0          0          0
SWF-OUT          755.25     0          0          0          0
WWTP             760.00     0          0          0          0
WWTP-OUT         760.00     0          0          0          0
STR#1            772.00     0          0          0          0
X22052           784.00     0          0          0          0
STJ#1            765.00     0          0          0          0
STJ#14           774.00     0          0          0          0
STJ#13           772.00     0          0          0          0
STJ#12           766.50     0          0          0          0
STJ#11           766.50     0          0          0          0
STJ#10           770.00     0          0          0          0
STJ#4(IN)        765.00     0          0          0          0
STJ#3(OUT)       764.00     0          0          0          0
STJ#2            764.00     0          0          0          0
Q06005           760.71     0          0          0          0
R02033           760.62     0          0          0          0
R06030           760.76     0          0          0          0
R02069           789.43     0          0          0          0
REG38-W1         760.00     0          0          0          0
REG38OUT         760.00     0          0          0          0
Q03089           795.00     0          0          0          0
Q07122           793.00     0          0          0          0
Q07123           797.00     0          0          0          0
REG36            796.00     0          0          0          0
REG36-W1         796.00     0          0          0          0
REG36OUT         796.00     0          0          0          0
R7OFMH           752.30     0          0          0          0
Q19044           785.00     0          0          0          0
Q19PUMPS         785.00     0          0          0          0
T46012           777.50     0          0          0          0
T46OUT           775.00     0          0          0          0
K15009           763.70     0          0          0          0
L19252           763.00     0          0          0          0
K19071           760.17     0          0          0          0
K15112           757.87     0          0          0          0
K07026           755.67     0          0          0          0
J03012           748.71     0          0          0          0
K02047           759.07     0          0          0          0
J02099           751.50     0          0          0          0
J02089           751.00     0          0          0          0
K11023           752.29     0          0          0          0
K11011           748.32     0          0          0          0
K11009           749.63     0          0          0          0
K11010           748.57     0          0          0          0
K11008           760.07     0          0          0          0
K11005           752.00     0          0          0          0
K11004           760.00     0          0          0          0
I02004           754.15     0          0          0          0
N23125           775.00     0          0          0          0
N23124           774.40     0          0          0          0
N23122-R37       774.40     0          0          0          0
N23121           773.70     0          0          0          0
N23078           784.05     0          0          0          0
N23081           784.00     0          0          0          0
I19048           759.40     0          0          0          0
I23002           760.50     0          0          0          0
J15016           766.80     0          0          0          0
H03072           755.18     0          0          0          0
H03001           763.60     0          0          0          0
H02079           756.30     0          0          0          0
H02078           756.40     0          0          0          0
G07003           764.80     0          0          0          0
G02009           778.40     0          0          0          0
E11017           764.20     0          0          0          0
E11016           764.40     0          0          0          0
D11042           762.60     0          0          0          0
D11035           761.60     0          0          0          0
H27003           770.25     0          0          0          0
H23025           760.80     0          0          0          0
H23022           760.00     0          0          0          0
H23019           759.20     0          0          0          0
I39002           770.00     0          0          0          0
E31002           781.20     0          0          0          0
D43006           773.00     0          0          0          0
D51002           791.40     0          0          0          0
D51001           791.70     0          0          0          0
C55003           799.40     0          0          0          0
EE5009           822.70     0          0          0          0
N31001           774.40     0          0          0          0
O23027           780.60     0          0          0          0
P23001           785.20     0          0          0          0
L27060           759.10     0          0          0          0
M23028           783.70     0          0          0          0
L23061           764.00     0          0          0          0
L23012           758.00     0          0          0          0
L23011           757.20     0          0          0          0
L23010           758.90     0          0          0          0
L23009           757.50     0          0          0          0
L23006           759.40     0          0          0          0
L27007           758.10     0          0          0          0
L27006           758.10     0          0          0          0
J15005           756.50     0          0          0          0
J15003           758.00     0          0          0          0
M31010           768.46     0          0          0          0
M31009           759.89     0          0          0          0
M31006           763.80     0          0          0          0
J19001           759.10     0          0          0          0
M35002           761.00     0          0          0          0
M35003           761.00     0          0          0          0
M35009           760.40     0          0          0          0
Reg19-OR1        760.00     0          0          0          0
Reg19            760.00     0          0          0          0
Reg19-1          760.00     0          0          0          0
Reg19-W1         760.00     0          0          0          0
Reg19-OUT        760.00     0          0          0          0
K11117           760.00     0          0          0          0
J11019           752.78     0          0          0          0
Reg20-OR1        763.57     0          0          0          0
Reg20            760.00     0          0          0          0
Reg20-1          760.00     0          0          0          0
J11104           760.00     0          0          0          0
Reg20-W1         760.00     0          0          0          0
Reg20-OUT        760.00     0          0          0          0
Reg21-1          770.00     0          0          0          0
Reg21-W1         770.00     0          0          0          0
Reg21-OUT        770.00     0          0          0          0
Reg21            770.00     0          0          0          0
K15065           770.00     0          0          0          0
Reg33            770.00     0          0          0          0
Reg33-W1         770.00     0          0          0          0
Reg33-OUT        770.00     0          0          0          0
Reg33-OR1        770.00     0          0          0          0
L19254           770.00     0          0          0          0
Reg16-OR1        751.00     0          0          0          0
Reg16            751.00     0          0          0          0
Reg16-W1         751.00     0          0          0          0
Reg16-OUT        751.00     0          0          0          0
J02075           751.00     0          0          0          0
Reg18            753.00     0          0          0          0
K07029           753.00     0          0          0          0
Reg18-W1         753.00     0          0          0          0
Reg18-OUT        753.00     0          0          0          0
Reg18-OR2        753.00     0          0          0          0
Reg18-OR1        753.00     0          0          0          0
Reg37-OUT        775.00     0          0          0          0
LS18/REG         755.80     0          0          0          0
LS18-OR1         755.80     0          0          0          0
K05093           755.80     0          0          0          0
J05291           755.80     0          0          0          0
LS18/OUT         763.33     0          0          0          0
G02008           791.00     0          0          0          0
F02013           793.50     0          0          0          0
E03032           783.90     0          0          0          0
E03002           794.00     0          0          0          0
E02053           792.50     0          0          0          0
E02002           810.50     0          0          0          0
EE5002           840.00     0          0          0          0
D31001           802.10     0          0          0          0
H39016           789.40     0          0          0          0
H43018           783.20     0          0          0          0
H27063           772.70     0          0          0          0
H31001           772.00     0          0          0          0
L27010           763.50     0          0          0          0
M35018           761.00     0          0          0          0
L39121           770.00     0          0          0          0
O31001           780.11     0          0          0          0
O31004           779.90     0          0          0          0
P19048           797.00     0          0          0          0
O27034           786.90     0          0          0          0
P27007           787.40     0          0          0          0
Q27001           793.20     0          0          0          0
J15004           748.20     0          0          0          0
LS18-OUT         762.00     0          0          0          0
LS18-S           763.25     0          0          0          0
J02116           750.07     0          0          0          0
J02115           750.07     0          0          0          0
3814             755.20     0          0          0          0
3820             767.90     0          0          0          0
H27002           770.35     0          0          0          0