;; SWMM5 .inp converted from XPSWMM .xp file
;; Generated by XPSWMM Card Reader
;; Source format: XP_CARD | Original title: Broward County NADA Study Model

[TITLE]
;;Project Title/Notes
Broward County NADA Study Model

[OPTIONS]
FLOW_UNITS           CFS
INFILTRATION         HORTON
FLOW_ROUTING         DYNWAVE
LINK_OFFSETS         DEPTH
MIN_SLOPE            0.0
ALLOW_PONDING        NO
SKIP_STEADY_STATE    NO
ROUTING_STEP         00:00:3600
VARIABLE_STEP        0.75
INERTIAL_DAMPING     NONE
NORMAL_FLOW_LIMITED  BOTH
MAX_TRIALS           50
HEAD_TOLERANCE       0.00033

[JUNCTIONS]
;;Name           Elev       MaxDepth   InitDepth  SurDepth   Aponded
;;-------------- ---------- ---------- ---------- ---------- ----------
495              0          0          0          0          0
596              16.00      0          17.50      0          0
597              16.00      0          17.50      0          0
598              16.00      0          17.50      0          0
599              16.00      0          17.50      0          0
600              16.00      0          17.50      0          0
601              16.00      0          17.50      0          0
602              16.00      0          17.50      0          0
604              16.00      0          17.50      0          0
605              16.00      0          17.50      0          0
G56H             16.00      0          17.50      0          0
607              16.00      0          17.50      0          0
608              16.00      0          17.50      0          0
609              16.00      0          17.50      0          0
610              16.00      0          17.41      0          0
612              17.00      0          17.50      0          0
S39_T            17.00      0          17.50      0          0
616              17.00      0          17.50      0          0
617              17.00      0          17.50      0          0
618              16.00      0          17.50      0          0
G56T             16.00      0          14.50      0          0
G-1260           16.00      0          10.00      0          0
621              16.00      0          10.00      0          0
622              16.00      0          10.00      0          0
G-1215           15.00      0          17.50      0          0
G-AVG            15.00      0          17.50      0          0
G-853            15.00      0          14.33      0          0
G56_T            16.00      0          15.00      0          0
628              16.00      0          15.00      0          0
G57H             16.00      0          15.00      0          0
D3-7             16.00      0          15.00      0          0
631              16.00      0          15.00      0          0
637              16.00      0          17.50      0          0
638              16.00      0          17.50      0          0
639              16.00      0          17.50      0          0
CM10_S           16.00      0          17.50      0          0
S37BH            16.00      0          17.50      0          0
642              16.00      0          17.50      0          0
643              16.00      0          17.50      0          0
644              16.00      0          17.50      0          0
645              15.00      0          17.50      0          0
647              15.00      0          17.50      0          0
S38AH            15.00      0          17.50      0          0
650              16.00      0          17.50      0          0
655              16.00      0          17.50      0          0
657              16.00      0          17.50      0          0
659              16.00      0          17.50      0          0
662              16.00      0          17.50      0          0
663              16.00      0          17.50      0          0
665              15.00      0          17.50      0          0
667              16.00      0          17.50      0          0
670              17.00      0          17.50      0          0
CH-Q             17.00      0          17.50      0          0
CM-4Q            16.00      0          0          0          0
CM-8Q            16.00      0          0          0          0
CSID-WQ          17.00      0          0          0          0
CSID-EQ          17.00      0          0          0          0
D2-1Q            17.00      0          0          0          0
D2-14Q           16.00      0          0          0          0
D2-2Q            17.00      0          0          0          0
D2-3Q            17.00      0          0          0          0
D2-5Q            17.00      0          0          0          0
D2-9Q            17.00      0          0          0          0
D3-1Q            17.00      0          0          0          0
D3-4Q            17.00      0          14.33      0          0
NSID-EQ          17.00      0          0          0          0
SDD-EQ           14.00      0          17.50      0          0
812              16.00      0          17.50      0          0
826              15.00      0          17.50      0          0
828              17.00      0          17.50      0          0
830              14.00      0          17.50      0          0
837              17.00      0          17.50      0          0
843              14.00      0          17.50      0          0

[STORAGE]
;;Name           Elev       MaxDepth   InitDepth  Shape      Curve/Params
;;-------------- ---------- ---------- ---------- ---------- ----------
PT-N             17.00      0          21.50      FUNCTIONAL 0 0          0
TRCB             15.00      0          19.00      FUNCTIONAL 0 0          0
CM8              16.00      0          19.25      FUNCTIONAL 0 0          0
CM6              16.00      0          18.50      FUNCTIONAL 0 0          0
CM7              18.40      -2.40      19.00      FUNCTIONAL 0 0          0
CM2              16.00      0          20.00      FUNCTIONAL 0 0          0
CM4              16.00      0          22.00      FUNCTIONAL 0 0          0
CM5              16.00      0          18.00      FUNCTIONAL 0 0          0
D2-1             16.00      0          21.00      FUNCTIONAL 0 0          0
D2-2             16.00      0          20.00      FUNCTIONAL 0 0          0
D2-3             16.00      0          20.00      FUNCTIONAL 0 0          0
D2-4             16.00      0          20.00      FUNCTIONAL 0 0          0
D2-5             16.00      0          19.25      FUNCTIONAL 0 0          0
D2-7             14.00      0          17.46      FUNCTIONAL 0 0          0
D2-8             15.50      0          17.46      FUNCTIONAL 0 0          0
D2-12            16.00      0          17.50      FUNCTIONAL 0 0          0
D2-11            16.00      0          19.25      FUNCTIONAL 0 0          0
D2-10            16.00      0          18.00      FUNCTIONAL 0 0          0
D2-14            16.00      0          19.70      FUNCTIONAL 0 0          0
D2-13            16.00      0          18.60      FUNCTIONAL 0 0          0
D3-2             15.00      0          19.00      FUNCTIONAL 0 0          0
D3-1             16.00      0          18.50      FUNCTIONAL 0 0          0
D3-3             16.00      0          17.50      FUNCTIONAL 0 0          0
D3-4             16.00      -2.00      17.50      FUNCTIONAL 0 0          0
NSID-W           13.00      0          17.25      FUNCTIONAL 0 0          0
CH               17.00      0          21.50      FUNCTIONAL 0 0          0
NSID-E           17.00      0          19.00      FUNCTIONAL 0 0          0
SDD-WEST         12.00      0          17.50      FUNCTIONAL 0 0          0
SDD-E            14.00      0          17.50      FUNCTIONAL 0 0          0
CSID-W           12.00      0          17.00      FUNCTIONAL 0 0          0
CSID-E           12.00      0          17.20      FUNCTIONAL 0 0          0
BC-1             16.00      0          19.00      FUNCTIONAL 0 0          0
D2-9             16.00      0          20.00      FUNCTIONAL 0 0          0
CM1              16.00      0          18.00      FUNCTIONAL 0 0          0
D21SS            16.00      0          21.00      FUNCTIONAL 0 0          0
D22SS            16.00      0          20.00      FUNCTIONAL 0 0          0
D24SS            16.00      0          20.00      FUNCTIONAL 0 0          0
D25SS            16.00      0          19.25      FUNCTIONAL 0 0          0
D214SS           16.00      0          19.70      FUNCTIONAL 0 0          0
D32SS            15.00      0          19.00      FUNCTIONAL 0 0          0
D31SS            16.00      0          18.50      FUNCTIONAL 0 0          0
CM6SS            16.00      0          18.50      FUNCTIONAL 0 0          0
CM7SS            16.00      0          19.00      FUNCTIONAL 0 0          0
TRCB_SS          15.00      0          19.00      FUNCTIONAL 0 0          0
SDDE-SS          14.00      0          17.50      FUNCTIONAL 0 0          0
SDDW-SS          12.00      0          17.50      FUNCTIONAL 0 0          0
CSIDW-SS         12.00      0          16.60      FUNCTIONAL 0 0          0
CSIDE-SS         12.00      0          17.20      FUNCTIONAL 0 0          0
NSIDE-SS         17.00      0          19.00      FUNCTIONAL 0 0          0
NSW-SS           13.00      0          17.25      FUNCTIONAL 0 0          0
CHSS             17.00      0          21.50      FUNCTIONAL 0 0          0
CM4SS            16.00      0          17.00      FUNCTIONAL 0 0          0
CM2SS            16.00      0          20.00      FUNCTIONAL 0 0          0
BC1SS            16.00      0          18.00      FUNCTIONAL 0 0          0
CM5SS            16.00      0          18.00      FUNCTIONAL 0 0          0
CM8SS            15.00      0          19.25      FUNCTIONAL 0 0          0
D210SS           16.00      0          18.00      FUNCTIONAL 0 0          0
D23SS            16.00      0          20.00      FUNCTIONAL 0 0          0
D29SS            16.00      0          20.00      FUNCTIONAL 0 0          0
D2-11SS          16.00      0          19.25      FUNCTIONAL 0 0          0
D28SS            15.50      0          17.46      FUNCTIONAL 0 0          0
D212SS           16.00      0          17.50      FUNCTIONAL 0 0          0
D213SS           16.00      0          18.60      FUNCTIONAL 0 0          0
PT-S             17.00      0          21.50      FUNCTIONAL 0 0          0

[CONDUITS]
;;Name           From             To               Length     Roughness  InOffset   OutOffset  InitFlow   MaxFlow
;;-------------- ---------------- ---------------- ---------- ---------- ---------- ---------- ---------- ----------
CM4-5GW          CM5              CM4              0          0          0          0          0          0
CM5-6GW          CM5              CM6              0          0          0          0          0          0
CM-TR_CLV        CM5              TRCB             0          0          0          0          0          0
CM5-7_GW         CM5              CM7              0          0          0          0          0          0
TR-CM7_GW        TRCB             CM7              0          0          0          0          0          0
PT-CM4GW         PT-N             CM4              0          0          0          0          0          0
CM2-PTWG         PT-N             CM2              0          0          0          0          0          0
D21-HC_GW        D2-1             600              0          0          0          0          0          0
D22-W            D2-2             602              0          0          0          0          0          0
D24-5GW          D2-4             D2-5             0          0          0          0          0          0
CS-54            D2-7             G56T             0          0          0          0          0          0
CS37-P           D2-11            D2-12            1037.00    0.0120     5.00       5.00       0          0
D23-10GW         ?                Node_1004552     0          0          0          0          0          0
BC1-D215         BC-1             D2-3             0          0          0          0          0          0
D21-22GW         D2-1             D2-2             0          0          0          0          0          0
D21-C4GW         D2-1             CM4              0          0          0          0          0          0
BC1-C4GW         BC-1             CM4              0          0          0          0          0          0
BC1-D29_GW       D2-9             BC-1             0          0          0          0          0          0
D22-9GW          D2-9             D2-2             0          0          0          0          0          0
D25-8GW          D2-5             D2-8             0          0          0          0          0          0
D23-9GW          D2-9             D2-3             0          0          0          0          0          0
D21-9GW          D2-9             D2-1             0          0          0          0          0          0
D22-3GW          D2-3             D2-2             0          0          0          0          0          0
D24-HCGW         D2-4             G56H             0          0          0          0          0          0
D23-4GW          D2-3             D2-4             0          0          0          0          0          0
D23-5GW          D2-3             D2-5             0          0          0          0          0          0
D11-14GW         D2-11            D2-14            0          0          0          0          0          0
D23-CM4GW        D2-3             CM4              0          0          0          0          0          0
C7-9GW           CM7              643              0          0          0          0          0          0
C7-C14GW         CM7              CM7SS            0          0          0          0          0          0
TR-S2_GW         TRCB             SDD-E            0          0          0          0          0          0
D29-CM4GW        D2-9             CM4              0          0          0          0          0          0
D3-MT-P          D3-1             D3-3             220.00     0.0120     4.00       4.00       0          0
D213-14G         D2-14            D2-13            0          0          0          0          0          0
D32-3GW          D3-2             D3-3             0          0          0          0          0          0
D31-CM6G         D3-1             CM6              0          0          0          0          0          0
D31-CM8G         D3-1             CM8              0          0          0          0          0          0
CSW-SW_GW        SDD-WEST         CSID-W           0          0          0          0          0          0
SE-SWGW          SDD-E            SDD-WEST         0          0          0          0          0          0
CSE-SEGW         SDD-E            CSID-E           0          0          0          0          0          0
SW-CSW_GW        SDD-WEST         NSID-W           0          0          0          0          0          0
SE-NSE_GW        NSID-E           SDD-E            0          0          0          0          0          0
NSE-PTGW         PT-N             NSID-E           0          0          0          0          0          0
CH-PT_GW         CH               PT-N             0          0          0          0          0          0
CH-WEIR          CH               S39_T            0          0          0          0          0          0
CM7-C14G         CM7              644              0          0          0          0          0          0
D2-HCGW          D2-2             601              0          0          0          0          0          0
NS-HC_GW         NSID-W           617              0          0          0          0          0          0
SW-L36GW         SDD-WEST         647              0          0          0          0          0          0
CSW-L36G         CSID-W           S38AH            0          0          0          0          0          0
583              D2-7             G-1260           0          0          0          0          0          0
584              D2-8             621              0          0          0          0          0          0
585              D2-12            622              0          0          0          0          0          0
586              D2-13            G-1215           0          0          0          0          0          0
587              D3-3             G-AVG            0          0          0          0          0          0
588              D3-4             G-853            0          0          0          0          0          0
CH-O             CHSS             CH-Q             300.00     0.0120     -9.75      -10.00     0          0
CH-O             CM8SS            CM-8Q            300.00     0.0001     -10.00     -10.00     0          0
CH-O             CSIDE-SS         CSID-EQ          300.00     0.0001     -9.97      -10.00     0          0
CH-O             CSIDW-SS         CSID-WQ          300.00     0.0001     -9.97      -10.00     0          0
D21-W            D2-1             599              0          0          0          0          0          0
NSID-O           NSIDE-SS         NSID-EQ          300.00     0.0001     -9.97      -10.00     0          0
914.1            CM4SS            CM-4Q            300.00     0.0001     -9.97      -10.00     0          0
SDDE-O           SDDE-SS          SDD-EQ           300.00     0.0001     -9.97      -10.00     0          0
D22O             D22SS            D2-2Q            300.00     0.0001     -9.97      -10.00     0          0
D29O             ?                Node_1007903     300.00     0.0001     -9.97      -10.00     0          0
D21O             D21SS            D2-1Q            300.00     0.0001     -9.97      -10.00     0          0
D25-O            D25SS            D2-5Q            300.00     0.0001     -9.97      -10.00     0          0
D23-O            ?                Node_1004899     300.00     0.0001     -9.97      -10.00     0          0
D214O            D214SS           D2-14Q           300.00     0.0001     -9.97      -10.00     0          0
D31O             D31SS            D3-1Q            300.00     0.0001     -9.97      -10.00     0          0
D34O             D3-4             D3-4Q            300.00     0.0001     -9.97      -10.00     0          0
D3_3-4GW         D3-3             D3-4             0          0          0          0          0          0
D21GW            D2-1             D21SS            0          0          0          0          0          0
D22GW            D2-2             D22SS            0          0          0          0          0          0
D24-GW           D2-4             D24SS            0          0          0          0          0          0
D25GW            D2-5             D25SS            0          0          0          0          0          0
D214GW           D2-14            D214SS           0          0          0          0          0          0
D32GW            D3-2             D32SS            0          0          0          0          0          0
D31GW            D3-1             D31SS            0          0          0          0          0          0
CM6GW            CM6              CM6SS            0          0          0          0          0          0
TRCB-GW          TRCB             TRCB_SS          0          0          0          0          0          0
SDDE-GW          SDD-E            SDDE-SS          0          0          0          0          0          0
SDDW-GW          SDD-WEST         SDDW-SS          0          0          0          0          0          0
CSIDW-GW         CSID-W           CSIDW-SS         0          0          0          0          0          0
CSIDE-GW         CSID-E           CSIDE-SS         0          0          0          0          0          0
CHGW             CH               CHSS             0          0          0          0          0          0
NSW-GW           NSID-W           NSW-SS           0          0          0          0          0          0
NSIDE-GW         NSID-E           NSIDE-SS         0          0          0          0          0          0
CM2GW            CM2              CM2SS            0          0          0          0          0          0
BC1GW            BC-1             BC1SS            0          0          0          0          0          0
CM5GW            CM5              CM5SS            0          0          0          0          0          0
CM8GW            CM8              CM8SS            0          0          0          0          0          0
D210GW           D2-10            D210SS           0          0          0          0          0          0
D23GW            D2-3             D23SS            0          0          0          0          0          0
CM4GW            CM4              CM4SS            0          0          0          0          0          0
D29GW            D2-9             D29SS            0          0          0          0          0          0
D211GW           D2-11            D2-11SS          0          0          0          0          0          0
D213D33          D2-13            D3-3             0          0          0          0          0          0
D28GW            D2-8             D28SS            0          0          0          0          0          0
D212GW           D2-12            D212SS           0          0          0          0          0          0
D213GW           D2-13            D213SS           0          0          0          0          0          0
CS7-W            TRCB             826              0          0          0          0          0          0
831              SDDW-SS          830              300.00     0.0001     -9.97      -10.00     0          0
PT1-W            PT-N             837              0          0          0          0          0          0
844              TRCB_SS          843              300.00     0.0001     -9.97      -10.00     0          0
846              CM1              CM2              0          0          0          0          0          0

[WEIRS]
;;Name           From             To               Type       CrestHt    Qcoeff     Gated    EndCon   EndCoeff   Surcharge
;;-------------- ---------------- ---------------- ---------- ---------- ---------- -------- -------- ---------- ----------
CS46-P           CM2              609              TRANSVERSE 11.00      1.840      NO       0        0          YES
CS11-P           CM8              637              TRANSVERSE 9.00       1.840      NO       0        0          YES
CS49-P           CM7              CM10_S           TRANSVERSE 9.00       1.840      NO       0        0          YES
CS45-P           CM4              598              TRANSVERSE 11.00      1.840      NO       0        0          YES
CS1-P            D2-3             605              TRANSVERSE 10.00      1.840      NO       0        0          YES
FP1              610              CM1              TRANSVERSE 11.00      1.840      NO       0        0          YES
PT_GW            PT-N             612              TRANSVERSE 11.00      1.840      NO       0        0          YES
CS45-W           CM4              597              TRANSVERSE 11.00      1.840      NO       0        0          YES
CM4-CHGW         CM4              596              TRANSVERSE 11.00      1.840      NO       0        0          YES
CS1-W            D2-3             604              TRANSVERSE 10.00      1.840      NO       0        0          YES
CS11-W           CM8              638              TRANSVERSE 9.00       1.840      NO       0        0          YES
CM8-9GW          CM8              639              TRANSVERSE 9.00       1.840      NO       0        0          YES
CS49-W           CM7              S37BH            TRANSVERSE 9.00       1.840      NO       0        0          YES
CM7-10G          CM7              642              TRANSVERSE 9.00       1.840      NO       0        0          YES
CS46-W           CM2              667              TRANSVERSE 11.00      1.840      NO       0        0          YES

[PUMPS]
;;Name           From             To               PumpCurve  Status   Startup    Shutoff
;;-------------- ---------------- ---------------- ---------- -------- ---------- ----------
CS-34            CM6              CM8              PC_CS-34   ON       11.50      9.50      
CS7-P            TRCB             645              PC_CS7-P   ON       10.50      9.00      
CS-50            Node_50          Node_1034217     PC_CS-50   ON       11.00      0         
CS2-P            D2-5             608              PC_CS2-P   ON       10.01      9.50      
CS3-PUMP         CS3-WEIR         D2-7             PC_CS3-PUMP ON       9.00       8.00      
CS-4             D2-12            D2-8             PC_CS-4    ON       9.00       8.50      
CS57PIPE         D2-10            D2-11            PC_CS57PIPE ON       11.01      9.50      
CS36-FC1         D2-10            D2-5             PC_CS36-FC1 ON       11.01      9.50      
CS39             CS40             D3-2             PC_CS39    ON       10.50      9.50      
CS9-P            D3-4             G56_T            PC_CS9-P   ON       9.01       7.49      
CS-52            D2-13            D2-12            PC_CS-52   ON       11.00      9.50      
CS12-P           D3-1             D3-7             PC_CS12-P  ON       15.00      8.00      
NSE-NSWGW        NSID-E           NSID-W           PC_NSE-NSWGW ON       10.00      9.50      
SDDE-P           SDD-E            663              PC_SDDE-P  ON       9.00       7.00      
SDDW-P           SDD-WEST         657              PC_SDDW-P  ON       9.00       7.00      
CSW-P            CSID-W           655              PC_CSW-P   ON       9.00       6.50      
CSE-P            CSID-E           659              PC_CSE-P   ON       9.00       6.50      
CS36-RCH         D2-5             D2-11            PC_CS36-RCH ON       9.50       9.00      
CS2-RCH          607              D2-5             PC_CS2-RCH ON       9.50       8.00      
CS-40            D3-2             D3-1             PC_CS-40   ON       10.50      9.50      
D25-HC_GW        D2-5             618              PC_D25-HC_GW ON       10.01      9.50      
CS12-W           D3-1             631              PC_CS12-W  ON       10.00      8.00      
D31-C14G         D3-1             G57H             PC_D31-C14G ON       10.00      8.00      
CSE-C14G         CSID-E           662              PC_CSE-C14G ON       7.25       6.50      
CSW-C14G         CSID-W           650              PC_CSW-C14G ON       7.25       6.50      
NSID-P1          NSID-W           616              PC_NSID-P1 ON       7.00       6.50      
CS9-W            D3-4             628              PC_CS9-W   ON       9.01       7.49      
TR_GW            TRCB             665              PC_TR_GW   ON       10.50      9.00      
NSID-P2          NSID-W           670              PC_NSID-P2 ON       7.00       6.50      
CS-35            D2-14            D2-10            PC_CS-35   ON       11.00      9.00      
CS-8             D3-1             D3-4             PC_CS-8    ON       10.50      9.00      
CS10-P           CM8              812              PC_CS10-P  ON       11.00      9.50      
PT1-P            PT-N             828              PC_PT1-P   ON       13.00      10.00     
PT-CS2           ?                Node_1034207     PC_PT-CS2  ON       12.00      10.00     
CS38-P           D2-3             D3-1             PC_CS38-P  ON       9.00       0         

[CURVES]
;;Name           Type       X-Value    Y-Value
;;-------------- ---------- ---------- ----------
PC_CS-34         Pump3      0          0
;
PC_CS7-P         Pump3      0          0
;
PC_CS-50         Pump3      0          0
;
PC_CS2-P         Pump3      0          0
;
PC_CS3-PUMP      Pump3      0          0
;
PC_CS-4          Pump3      0          0
;
PC_CS57PIPE      Pump3      0          0
;
PC_CS36-FC1      Pump3      0          0
;
PC_CS39          Pump3      0          0
;
PC_CS9-P         Pump3      0          0
;
PC_CS-52         Pump3      0          0
;
PC_CS12-P        Pump3      0          0
;
PC_NSE-NSWGW     Pump3      0          0
;
PC_SDDE-P        Pump3      0          0
;
PC_SDDW-P        Pump3      0          0
;
PC_CSW-P         Pump3      0          0
;
PC_CSE-P         Pump3      0          0
;
PC_CS36-RCH      Pump3      0          0
;
PC_CS2-RCH       Pump3      0          0
;
PC_CS-40         Pump3      0          0
;
PC_D25-HC_GW     Pump3      0          0
;
PC_CS12-W        Pump3      0          0
;
PC_D31-C14G      Pump3      0          0
;
PC_CSE-C14G      Pump3      0          0
;
PC_CSW-C14G      Pump3      0          0
;
PC_NSID-P1       Pump3      0          0
;
PC_CS9-W         Pump3      0          0
;
PC_TR_GW         Pump3      0          0
;
PC_NSID-P2       Pump3      0          0
;
PC_CS-35         Pump3      0          0
;
PC_CS-8          Pump3      0          0
;
PC_CS10-P        Pump3      0          0
;
PC_PT1-P         Pump2      0          0
;
PC_PT-CS2        Pump3      0          0
;
PC_CS38-P        Pump3      0          0
;

[XSECTIONS]
;;Link           Shape        Geom1      Geom2      Geom3      Geom4      Barrels
;;-------------- ------------ ---------- ---------- ---------- ---------- ----------
CM4-5GW          CIRCULAR     0          0          0          0          1
CM5-6GW          CIRCULAR     0          0          0          0          1
CM-TR_CLV        CIRCULAR     0          0          0          0          1
CM5-7_GW         CIRCULAR     0          0          0          0          1
TR-CM7_GW        CIRCULAR     0          0          0          0          1
PT-CM4GW         CIRCULAR     0          0          0          0          1
CM2-PTWG         CIRCULAR     0          0          0          0          1