;; SWMM5 .inp converted from XPSWMM .xp file
;; Generated by XPSWMM Card Reader
;; Source format: XP_CARD | Original title: Welland Sewers

[TITLE]
;;Project Title/Notes
Welland Sewers

[OPTIONS]
FLOW_UNITS           CMS
INFILTRATION         HORTON
FLOW_ROUTING         DYNWAVE
LINK_OFFSETS         DEPTH
MIN_SLOPE            0.0
ALLOW_PONDING        NO
SKIP_STEADY_STATE    NO
ROUTING_STEP         00:00:300
VARIABLE_STEP        0.75
INERTIAL_DAMPING     PARTIAL
NORMAL_FLOW_LIMITED  BOTH

[JUNCTIONS]
;;Name           Elev       MaxDepth   InitDepth  SurDepth   Aponded
;;-------------- ---------- ---------- ---------- ---------- ----------
H6-146           177.00     0          0          0          0
Ontario          175.00     0          0          0          0
F7-12            181.70     0          0          0          0
River            180.00     0          0          0          0
H6-65            179.00     0          0          0          0
H6-100           177.47     0          0          0          0
H6-35            179.56     0          0          0          0
H6-41            178.74     0          0          0          0
Outfall          180.00     0          0          0          0
WPCP             175.00     0          0          0          0
H5-130           178.22     0          0          0          0
H5-34            178.20     0          0          0          0
Dain             177.44     0          0          0          0
H5-128           178.80     0          0          0          0
H5-38            178.29     0          0          0          0
H6-22            177.82     0          0          0          0
East             173.75     0          0          0          0
F7-62            182.08     0          0          0          0
82               173.50     0          0          0          0
F7-397           181.70     0          0          0          0
F7-7             181.40     0          0          0          0
F7-16            181.96     0          0          0          0
F7-28            182.08     0          0          0          0
F7-43            182.23     0          0          0          0
F7-49            181.73     0          0          0          0
E7-124           182.50     0          0          0          0
Drop             180.00     0          0          0          0
132              0          0          0          0          0

[STORAGE]
;;Name           Elev       MaxDepth   InitDepth  Shape      Curve/Params
;;-------------- ---------- ---------- ---------- ---------- ----------
Pond             177.29     0          0.45       FUNCTIONAL 0 0          0

[CONDUITS]
;;Name           From             To               Length     Roughness  InOffset   OutOffset  InitFlow   MaxFlow
;;-------------- ---------------- ---------------- ---------- ---------- ---------- ---------- ---------- ----------
#7               H6-100           Pond             191.60     0.0130     172.40     172.38     0          0
#6               Pond             H6-146           50.00      0.0130     172.06     171.62     0          0
#5A              H6-65            H6-35            166.20     0.0130     175.19     174.66     0          0
#5B              H6-35            H6-100           735.00     0.0130     174.69     171.84     0          0
#2A              H6-146           H6-41            1013.90    0.0130     171.15     168.86     0          0
#2B              H6-41            82               395.90     0.0130     168.86     168.55     0          0
OUT99            River            Outfall          103.10     0.0130     172.00     171.92     0          0
1800             Drop             WPCP             128.90     0.0130     161.32     161.06     0          0
41               H5-128           H5-34            195.40     0.0130     173.35     173.00     0          0
42               H5-34            H5-38            95.30      0.0130     173.07     172.68     0          0
100              Dain             H5-34            717.00     0.0130     174.92     173.26     0          0
69               H5-130           H5-128           147.50     0.0130     173.75     173.35     0          0
72               H5-38            H6-22            207.00     0.0130     172.58     171.95     0          0
73               H6-22            H6-146           349.50     0.0130     171.95     171.15     0          0
77               East             82               10.00      0.0130     168.75     168.55     0          0
83               82               Ontario          1.00       0.0130     168.55     168.50     0          0
89               F7-12            F7-397           19.00      0.0130     177.80     177.75     0          0
91               F7-397           F7-7             99.70      0.0130     177.70     177.50     0          0
93               F7-7             F7-16            112.20     0.0130     177.22     176.96     0          0
103              F7-43            F7-49            131.60     0.0130     175.68     175.38     0          0
123              F7-16            F7-28            216.10     0.0130     176.96     176.58     0          0
124              F7-28            F7-43            204.50     0.0130     176.58     175.83     0          0
125              F7-49            F7-62            267.10     0.0130     175.33     174.91     0          0
126              F7-62            E7-124           1413.70    0.0130     174.16     172.50     0          0
127              E7-124           River            707.30     0.0130     172.50     171.95     0          0
#3               Ontario          F7-12            300.00     0.0130     179.00     178.00     0          0
#8               H6-35            H6-41            170.00     0.0130     174.10     172.82     0          0
1050             River            Drop             19.82      0.0130     171.61     171.56     0          0
133              Pond             132              50.00      0.0130     175.53     175.21     0          0

[XSECTIONS]
;;Link           Shape        Geom1      Geom2      Geom3      Geom4      Barrels
;;-------------- ------------ ---------- ---------- ---------- ---------- ----------
#7               CIRCULAR     1.80       0          0          0          1
#6               CIRCULAR     0.30       0          0          0          1
#5A              CIRCULAR     2.10       0          0          0          1
#5B              CIRCULAR     1.80       0          0          0          1
#2A              CIRCULAR     0.90       0          0          0          1
#2B              CIRCULAR     0.90       0          0          0          1
OUT99            CIRCULAR     2.40       0          0          0          1
1800             CIRCULAR     1.80       0          0          0          1
41               CIRCULAR     0.40       0          0          0          1
42               CIRCULAR     0.60       0          0          0          1
100              CIRCULAR     0.45       0          0          0          1
69               CIRCULAR     0.38       0          0          0          1
72               CIRCULAR     0.60       0          0          0          1
73               CIRCULAR     0.75       0          0          0          1
77               CIRCULAR     0.90       0          0          0          1
83               CIRCULAR     0.90       0          0          0          1
89               CIRCULAR     0.60       0          0          0          1
91               CIRCULAR     0.75       0          0          0          1
93               CIRCULAR     0.82       0          0          0          1
103              CIRCULAR     1.35       0          0          0          1
123              CIRCULAR     1.05       0          0          0          1
124              CIRCULAR     1.20       0          0          0          1
125              CIRCULAR     1.50       0          0          0          1
126              CIRCULAR     2.40       0          0          0          1
127              CIRCULAR     2.40       0          0          0          1
#3               CIRCULAR     0.35       0          0          0          1
#8               CIRCULAR     0.40       0          0          0          1
1050             CIRCULAR     1.05       0          0          0          1
133              CIRCULAR     1.05       0          0          0          1

[LOSSES]
;;Link           Inlet      Outlet     Average    Flap Gate
;;-------------- ---------- ---------- ---------- ----------
#7               0          0          0          NO
#6               0          0          0          NO
#5A              0          0          0          NO
#5B              0          0          0          NO
#2A              0          0          0          NO
#2B              0          0          0          NO
OUT99            0          0          0          NO
1800             0          0          0          NO
41               0          0          0          NO
42               0          0          0          NO
100              0          0          0          NO
69               0          0          0          NO
72               0          0          0          NO
73               0          0          0          NO
77               0          0          0          NO
83               0          0          0          NO
89               0          0          0          NO
91               0          0          0          NO
93               0          0          0          NO
103              0          0          0          NO
123              0          0          0          NO
124              0          0          0          NO
125              0          0          0          NO
126              0          0          0          NO
127              0          0          0          NO
#3               0          0          0          NO
#8               0          0          0          NO
1050             0          0          0          NO
133              0          0          0          NO

[COORDINATES]
;;Node           X-Coord            Y-Coord
;;-------------- ------------------ ------------------
H6-146           81.94              111.07            
Ontario          62.16              224.17            
F7-12            38.54              222.82            
River            -45.00             93.83             
H6-65            40.32              115.12            
H6-100           110.19             168.71            
H6-35            50.46              156.95            
H6-41            84.59              183.90            
Outfall          -51.90             -18.26            
WPCP             -95.62             79.41             
Pond             122.95             166.03            
H5-130           34.64              -37.80            
H5-34            93.04              19.63             
Dain             121.65             -22.03            
H5-128           70.19              -12.11            
H5-38            90.92              52.32             
H6-22            91.27              83.44             
East             119.95             252.97            
F7-62            -101.03            224.35            
82               81.74              224.71            
F7-397           17.26              225.29            
F7-7             -1.76              226.73            
F7-16            -19.91             226.01            
F7-28            -38.07             225.29            
F7-43            -60.55             225.29            
F7-49            -79.57             225.29            
E7-124           -100.37            148.53            
Drop             -76.26             40.89             
132              139.11             102.24            

[MAP]
DIMENSIONS -101.03 -37.80 139.11 252.97
Units      None

[REPORT]
INPUT            YES
SUBCATCHMENTS    ALL
NODES            ALL
LINKS            ALL



