;; SWMM5 .inp converted from XPSWMM .xp file
;; Generated by XPSWMM Card Reader
;; Source format: XP_CARD | Original title: 3OTH AVENUE STORM TRUNK AND BASIN HYDRAULIC EVALUATION

[TITLE]
;;Project Title/Notes
3OTH AVENUE STORM TRUNK AND BASIN HYDRAULIC EVALUATION

[OPTIONS]
FLOW_UNITS           CMS
INFILTRATION         HORTON
FLOW_ROUTING         DYNWAVE
LINK_OFFSETS         DEPTH
MIN_SLOPE            0.0
ALLOW_PONDING        NO
SKIP_STEADY_STATE    NO
ROUTING_STEP         00:00:60
VARIABLE_STEP        0.75
INERTIAL_DAMPING     NONE
NORMAL_FLOW_LIMITED  BOTH
MAX_TRIALS           30

[JUNCTIONS]
;;Name           Elev       MaxDepth   InitDepth  SurDepth   Aponded
;;-------------- ---------- ---------- ---------- ---------- ----------
801              707.44     0          0          0          0
802              707.13     0          0          0          0
8200             705.91     0          0          0          0
82001            703.48     0          0          0          0
803              702.56     0          0          0          0
811              701.34     0          0          0          0
804              712.92     0          0          0          0
805              710.79     0          0          0          0
806              711.10     0          0          0          0
807              709.88     0          0          0          0
8071             708.66     0          0          0          0
8072             708.35     0          0          0          0
808              708.05     0          0          0          0
809              708.05     0          0          0          0
810              705.76     0          0          0          0
7101             704.39     0          0          0          0
7102             702.56     0          0          0          0
8201             704.54     0          0          0          0
82011            704.39     0          0          0          0
8202             703.93     0          0          0          0
82021            701.95     0          0          0          0
8203             699.36     0          0          0          0
812              710.79     0          0          0          0
813              709.27     0          0          0          0
815              705.91     0          0          0          0
814              705.61     0          0          0          0
816              704.70     0          0          0          0
817              702.56     0          0          0          0
818              702.26     0          0          0          0
819              700.43     0          0          0          0
820              699.51     0          0          0          0
8204             696.77     0          0          0          0
821              699.51     0          0          0          0
822              697.68     0          0          0          0
82041            695.25     0          0          0          0
80281            692.96     0          0          0          0
823              703.17     0          0          0          0
824              700.43     0          0          0          0
8241             697.99     0          0          0          0
825              695.86     0          0          0          0
826              695.25     0          0          0          0
827              694.03     0          0          0          0
828              693.72     0          0          0          0
8392             691.89     0          0          0          0
829              703.48     0          0          0          0
8291             701.65     0          0          0          0
830              699.82     0          0          0          0
833              694.03     0          0          0          0
831              694.64     0          0          0          0
832              693.11     0          0          0          0
834              691.28     0          0          0          0
839              692.20     0          0          0          0
835              693.11     0          0          0          0
836              692.20     0          0          0          0
837              692.20     0          0          0          0
8371             691.89     0          0          0          0
8372             691.89     0          0          0          0
838              691.89     0          0          0          0
8391             692.81     0          0          0          0
8205             691.59     0          0          0          0
8393             691.44     0          0          0          0
8207             690.98     0          0          0          0
8209             688.85     0          0          0          0
843              688.69     0          0          0          0
8210             709.27     0          0          0          0
82101            705.30     0          0          0          0
8212             704.39     0          0          0          0
8211             705.30     0          0          0          0
82121            702.56     0          0          0          0
8215             699.51     0          0          0          0
8213             702.41     0          0          0          0
82131            702.87     0          0          0          0
8214             700.12     0          0          0          0
8216             695.40     0          0          0          0
82171            694.64     0          0          0          0
8217             694.64     0          0          0          0
8411             691.89     0          0          0          0
840              696.16     0          0          0          0
8401             694.18     0          0          0          0
841              692.50     0          0          0          0
8218             690.98     0          0          0          0
8222             694.33     0          0          0          0
8219             694.79     0          0          0          0
82191            693.72     0          0          0          0
8220             692.81     0          0          0          0
8221             693.72     0          0          0          0
82211            693.11     0          0          0          0
82221            692.81     0          0          0          0
842              689.61     0          0          0          0
8421             690.06     0          0          0          0
8431             689.91     0          0          0          0
8491             689.76     0          0          0          0
844              694.18     0          0          0          0
846              692.35     0          0          0          0
845              692.50     0          0          0          0
8461             690.98     0          0          0          0
847              690.92     0          0          0          0
8471             690.43     0          0          0          0
848              690.22     0          0          0          0
849              691.59     0          0          0          0
8492             687.93     0          0          0          0
m4               691.50     0          0          0          0
m5               691.40     0          0          0          0
m7               692.20     0          0          0          0
m8               692.00     0          0          0          0
m9               690.70     0          0          0          0
m10              690.70     0          0          0          0
m11              691.80     0          0          0          0
m12              690.00     0          0          0          0
m13              686.70     0          0          0          0
m14              686.41     0          0          0          0
m1               690.89     0          0          0          0
m2               690.89     0          0          0          0
m3               691.30     0          0          0          0
m6               691.41     0          0          0          0
c10              686.00     0          0          0          0
c2               686.41     0          0          0          0
c3               687.10     0          0          0          0
c5               687.10     0          0          0          0
c8               687.00     0          0          0          0
c7               687.00     0          0          0          0
c9               686.00     0          0          0          0
HWP              691.10     0          0          0          0
H1               691.60     0          0          0          0
H2               694.50     0          0          0          0
H3               694.50     0          0          0          0

[STORAGE]
;;Name           Elev       MaxDepth   InitDepth  Shape      Curve/Params
;;-------------- ---------- ---------- ---------- ---------- ----------
c1               689.91     0          0          FUNCTIONAL 64.00 0          0
c4               688.10     0          0          FUNCTIONAL 0 0          0
c6               688.10     0          0          FUNCTIONAL 0 0          0

[CONDUITS]
;;Name           From             To               Length     Roughness  InOffset   OutOffset  InitFlow   MaxFlow
;;-------------- ---------------- ---------------- ---------- ---------- ---------- ---------- ---------- ----------
801              801              802              201.17     0.0150     702.45     701.65     0          0
802              802              8200             170.99     0.0150     701.50     700.81     0          0
8200             8200             82001            220.98     0.0150     699.95     696.46     0          0
82001            82001            803              122.52     0.0130     696.31     695.64     0          0
803              803              811              335.28     0.0150     695.64     693.54     0          0
804              804              805              260.30     0.0150     705.41     703.90     0          0
805              805              806              92.66      0.0120     703.86     703.24     0          0
806              806              807              177.39     0.0150     703.21     701.98     0          0
807              807              8071             86.26      0.0120     701.86     701.36     0          0
8071             8071             8072             65.53      0.0100     701.36     701.15     0          0
8072             8072             808              58.72      0.0090     701.15     699.48     0          0
808              808              809              131.67     0.0140     699.45     698.93     0          0
809              809              810              352.65     0.0150     698.90     696.85     0          0
810              810              7101             170.69     0.0150     696.85     696.27     0          0
7101             7101             7102             202.08     0.0150     696.27     695.01     0          0
7102             7102             811              385.88     0.0150     695.01     693.34     0          0
8201             8201             82011            77.50      0.0100     698.78     698.47     0          0
82011            82011            8202             330.71     0.0150     698.33     696.91     0          0
8202             8202             82021            89.70      0.0120     696.91     696.37     0          0
82021            82021            811              252.68     0.0150     696.32     694.22     0          0
811              811              8203             397.46     0.0150     693.34     690.93     0          0
812              812              813              110.79     0.0130     702.13     702.01     0          0
813              813              815              275.23     0.0150     701.86     698.38     0          0
814              814              815              170.99     0.0150     701.25     700.43     0          0
815              815              816              140.97     0.0140     697.76     696.80     0          0
816              816              817              116.74     0.0130     696.65     695.52     0          0
817              817              818              221.89     0.0150     695.52     693.89     0          0
818              818              819              269.75     0.0150     693.59     692.70     0          0
819              819              820              285.90     0.0150     692.46     691.40     0          0
820              820              8203             166.42     0.0150     691.40     690.85     0          0
8203             8203             8204             344.73     0.0150     690.49     688.18     0          0
821              821              822              451.41     0.0150     693.19     691.20     0          0
822              822              8204             110.33     0.0130     690.91     690.47     0          0
8204             8204             82041            304.80     0.0150     688.18     686.43     0          0
82041            82041            80281            236.22     0.0150     686.43     684.66     0          0
823              823              824              153.31     0.0150     696.98     695.00     0          0
824              824              8241             204.22     0.0150     693.98     690.37     0          0
8241             8241             825              288.34     0.0150     690.37     687.97     0          0
825              825              826              105.76     0.0120     687.91     687.18     0          0
826              826              827              141.12     0.0140     687.18     686.26     0          0
827              827              828              300.53     0.0150     686.26     684.43     0          0
828              828              80281            115.82     0.0130     684.43     684.19     0          0
80281            80281            8392             199.34     0.0150     683.90     682.90     0          0
829              829              8291             262.74     0.0150     697.64     695.89     0          0
8291             8291             830              262.74     0.0150     695.89     694.13     0          0
830              830              833              451.10     0.0150     693.39     688.82     0          0
831              831              832              249.63     0.0150     688.95     687.87     0          0
832              832              833              239.88     0.0150     687.62     687.02     0          0
833              833              834              353.26     0.0150     687.02     685.47     0          0
834              834              m6               58.83      0.0150     685.47     685.21     0          0
835              835              836              239.88     0.0150     689.01     688.21     0          0
836              836              837              341.38     0.0150     687.67     686.98     0          0
837              837              8371             69.49      0.0100     686.78     686.58     0          0
8371             8371             8372             71.93      0.0100     686.65     686.61     0          0
8372             8372             m1               238.81     0.0150     686.61     685.75     0          0
838              838              839              355.40     0.0150     685.43     684.65     0          0
839              839              8391             178.61     0.0150     683.70     683.23     0          0
8391             8391             8392             114.91     0.0130     683.23     683.02     0          0
8205             8205             8392             457.20     0.0150     684.16     683.24     0          0
8392             8392             8393             253.00     0.0150     681.85     681.22     0          0
8207             8207             8393             263.35     0.0150     684.09     683.37     0          0
8393             8393             c1               365.00     0.0150     681.22     680.50     0          0
c10              ?                Node_1201326     387.00     0.0150     680.50     679.33     0          0
8209             8209             843              149.96     0.0150     679.33     679.09     0          0
8210             8210             82101            308.15     0.0150     695.09     693.99     0          0
82101            82101            8212             214.88     0.0150     693.99     693.35     0          0
8211             8211             8212             370.03     0.0150     694.00     692.84     0          0
8212             8212             82121            343.81     0.0150     692.70     691.28     0          0
82121            82121            8215             248.11     0.0150     691.28     690.30     0          0
8213             8213             82131            201.17     0.0150     696.13     695.20     0          0
82131            82131            8214             338.63     0.0150     695.20     693.17     0          0
8214             8214             8215             160.02     0.0150     692.81     691.08     0          0
8215             8215             8216             258.47     0.0150     690.14     689.12     0          0
8216             8216             82171            119.18     0.0130     689.12     688.63     0          0
8217             8217             82171            179.83     0.0150     689.80     689.43     0          0
82171            82171            8411             220.37     0.0150     688.63     687.78     0          0
840              840              8401             258.17     0.0150     689.52     688.33     0          0
8401             8401             841              175.26     0.0150     688.33     687.78     0          0
841              841              8411             130.61     0.0140     687.78     687.28     0          0
8411             8411             8218             238.05     0.0150     686.97     686.26     0          0
8218             8218             8222             441.66     0.0150     686.26     684.94     0          0
8219             8219             82191            170.38     0.0150     690.03     689.52     0          0
82191            82191            8220             163.37     0.0150     689.36     688.87     0          0
8220             8220             8221             382.83     0.0150     688.72     687.53     0          0
8221             8221             82211            334.37     0.0150     687.45     686.55     0          0
82211            82211            8222             381.91     0.0150     686.55     685.79     0          0
8222             8222             82221            119.02     0.0130     684.22     683.80     0          0
82221            82221            842              352.96     0.0150     683.80     682.53     0          0
842              842              8421             68.88      0.0100     682.52     681.29     0          0
8421             8421             843              203.91     0.0150     681.29     680.64     0          0
843              843              8431             194.00     0.0150     679.09     678.66     0          0
8431             8431             8491             255.00     0.0150     678.66     678.02     0          0
844              844              846              103.27     0.0120     687.63     687.11     0          0
845              845              846              130.45     0.0140     688.27     687.67     0          0
846              846              8461             135.94     0.0140     687.11     686.72     0          0
8461             8461             847              320.95     0.0150     686.72     685.74     0          0
847              847              8471             144.99     0.0140     685.74     685.34     0          0
8471             8471             848              132.58     0.0140     685.24     684.85     0          0
848              848              849              330.40     0.0150     684.85     683.50     0          0
849              849              8491             476.10     0.0289     683.50     678.02     0          0
8491             8491             8492             204.00     0.0150     678.02     677.18     0          0
834a             834              m4               10.66      0.0140     687.90     687.85     0          0
m4               ?                Node_11641166    29.26      0.0140     687.54     687.47     0          0
m5               ?                Node_11661168    129.24     0.0140     687.16     687.00     0          0
m7               ?                Node_11681171    77.00      0.0140     687.00     686.88     0          0
m8               ?                Node_11711173    226.77     0.0140     686.73     685.82     0          0
m9               ?                Node_11731175    48.76      0.0140     685.82     684.85     0          0
m10              ?                Node_11751177    209.70     0.0140     684.85     684.29     0          0
m11              ?                Node_11771180    96.59      0.0140     684.29     684.07     0          0
m12              ?                Node_11801182    49.00      0.0140     684.07     682.09     0          0
m13              ?                Node_11821184    104.00     0.0140     682.09     681.31     0          0
m14              ?                Node_1184324     24.87      0.0140     681.31     680.50     0          0
m1               ?                Node_11871188    3.00       0.0140     688.71     688.70     0          0
m2               ?                Node_11881190    52.57      0.0140     688.45     688.35     0          0
m3               ?                Node_11901171    128.02     0.0140     688.18     687.35     0          0
m6a              ?                Node_1194301     252.98     0.0140     685.21     683.70     0          0
m6               ?                Node_11941166    10.00      0.0140     685.21     687.77     0          0
838a             838              m7               4.00       0.0140     689.29     689.28     0          0
m1a              ?                Node_1187312     154.99     0.0140     685.75     685.43     0          0
c3b              ?                Node_12041209    27.00      0.0140     682.25     682.25     0          0
c5b              ?                Node_12061211    22.00      0.0140     682.50     682.50     0          0
c5a              ?                Node_12061213    12.30      0.0140     681.99     681.99     0          0
c3a              ?                Node_12041215    12.00      0.0140     681.36     681.36     0          0
bypass           ?                Node_12221201    6.03       0.0140     680.50     680.50     0          0
H1A              ?                Node_12671268    75.50      0.0140     688.48     688.17     0          0
H1               ?                Node_12681270    302.70     0.0140     688.17     687.52     0          0
H2               ?                Node_12701272    11.00      0.0140     687.52     687.42     0          0
H3               ?                Node_1272268     4.50       0.0140     687.42     687.41     0          0
1283             ?                ?                22.00      0.0140     682.50     682.50     0          0
1284             ?                ?                27.00      0.0140     682.25     682.25     0          0

[ORIFICES]
;;Name           From             To               Type       Offset     Qcoeff     Gated    CloseTime
;;-------------- ---------------- ---------------- ---------- ---------- ---------- -------- ----------
c8               ?                Node_12131201    SIDE       0          0.650      NO       0
c7               ?                Node_12151201    SIDE       0          0.650      NO       0
c1b              c1               c9               SIDE       0          0.650      NO       0

[WEIRS]
;;Name           From             To               Type       CrestHt    Qcoeff     Gated    EndCon   EndCoeff   Surcharge
;;-------------- ---------------- ---------------- ---------- ---------- ---------- -------- -------- ---------- ----------
c1a              c1               c2               TRANSVERSE 686.20     1.840      NO       0        0          YES
c2a              ?                Node_12021204    TRANSVERSE 683.99     1.840      NO       0        0          YES
c2b              ?                Node_12021206    TRANSVERSE 685.40     1.840      NO       0        0          YES

[XSECTIONS]
;;Link           Shape        Geom1      Geom2      Geom3      Geom4      Barrels
;;-------------- ------------ ---------- ---------- ---------- ---------- ----------
801              CIRCULAR     0.90       0          0          0          1
802              CIRCULAR     1.05       0          0          0          1
8200             CIRCULAR     1.50       0          0          0          1
82001            CIRCULAR     1.65       0          0          0          1
803              CIRCULAR     1.65       0          0          0          1
804              CIRCULAR     1.05       0          0          0          1
805              CIRCULAR     1.05       0          0          0          1
806              CIRCULAR     1.20       0          0          0          1
807              CIRCULAR     1.35       0          0          0          1
8071             CIRCULAR     1.50       0          0          0          1
8072             CIRCULAR     1.50       0          0          0          1
808              CIRCULAR     1.65       0          0          0          1
809              CIRCULAR     1.65       0          0          0          1
810              CIRCULAR     1.65       0          0          0          1
7101             CIRCULAR     1.65       0          0          0          1
7102             CIRCULAR     1.65       0          0          0          1
8201             CIRCULAR     1.05       0          0          0          1
82011            CIRCULAR     1.20       0          0          0          1
8202             CIRCULAR     1.20       0          0          0          1
82021            CIRCULAR     1.20       0          0          0          1
811              CIRCULAR     1.95       0          0          0          1
812              CIRCULAR     1.05       0          0          0          1
813              CIRCULAR     1.05       0          0          0          1
814              CIRCULAR     0.90       0          0          0          1
815              CIRCULAR     1.20       0          0          0          1
816              CIRCULAR     1.35       0          0          0          1
817              CIRCULAR     1.35       0          0          0          1
818              CIRCULAR     1.65       0          0          0          1
819              CIRCULAR     1.65       0          0          0          1
820              CIRCULAR     1.65       0          0          0          1
8203             CIRCULAR     1.95       0          0          0          1
821              CIRCULAR     0.90       0          0          0          1
822              CIRCULAR     1.05       0          0          0          1
8204             CIRCULAR     1.95       0          0          0          1
82041            CIRCULAR     1.95       0          0          0          1
823              CIRCULAR     0.90       0          0          0          1
824              CIRCULAR     0.90       0          0          0          1
8241             CIRCULAR     1.05       0          0          0          1
825              CIRCULAR     1.20       0          0          0          1
826              CIRCULAR     1.20       0          0          0          1
827              CIRCULAR     1.35       0          0          0          1
828              CIRCULAR     1.50       0          0          0          1
80281            CIRCULAR     1.95       0          0          0          1
829              CIRCULAR     0.90       0          0          0          1
8291             CIRCULAR     0.90       0          0          0          1
830              CIRCULAR     0.90       0          0          0          1
831              CIRCULAR     1.05       0          0          0          1
832              CIRCULAR     1.35       0          0          0          1
833              CIRCULAR     1.35       0          0          0          1
834              CIRCULAR     1.35       0          0          0          1
835              CIRCULAR     1.05       0          0          0          1
836              CIRCULAR     1.05       0          0          0          1
837              CIRCULAR     1.20       0          0          0          1
8371             CIRCULAR     1.20       0          0          0          1
8372             CIRCULAR     1.20       0          0          0          1
838              CIRCULAR     1.20       0          0          0          1
839              CIRCULAR     1.80       0          0          0          1
8391             CIRCULAR     1.80       0          0          0          1
8205             CIRCULAR     1.65       0          0          0          1
8392             HORSESHOE    3.17       1.95       0          0          1
8207             CIRCULAR     1.05       0          0          0          1
8393             HORSESHOE    3.17       1.95       0          0          1
c10              HORSESHOE    3.17       1.95       0          0          1
8209             HORSESHOE    3.17       1.95       0          0          1
8210             CIRCULAR     1.20       0          0          0          1
82101            CIRCULAR     1.20       0          0          0          1
8211             CIRCULAR     1.20       0          0          0          1
8212             CIRCULAR     1.65       0          0          0          1
82121            CIRCULAR     1.65       0          0          0          1
8213             CIRCULAR     0.90       0          0          0          1