;; SWMM5 .inp converted from XPSWMM .xp file
;; Generated by XPSWMM Card Reader
;; Source format: XP_CARD | Original title: Metropolitan Water District    1/18/97 14:17

[TITLE]
;;Project Title/Notes
Metropolitan Water District    1/18/97 14:17

[OPTIONS]
FLOW_UNITS           CFS
INFILTRATION         HORTON
FLOW_ROUTING         DYNWAVE
LINK_OFFSETS         DEPTH
MIN_SLOPE            0.0
ALLOW_PONDING        NO
SKIP_STEADY_STATE    NO
ROUTING_STEP         00:00:10
VARIABLE_STEP        0.75
INERTIAL_DAMPING     NONE
NORMAL_FLOW_LIMITED  BOTH
MAX_TRIALS           30

[JUNCTIONS]
;;Name           Elev       MaxDepth   InitDepth  SurDepth   Aponded
;;-------------- ---------- ---------- ---------- ---------- ----------
85201            1950.00    0          17.00      0          0
5202             1950.00    0          71.00      0          0
5203             1950.00    0          95.00      0          0
5204             1950.00    0          315.00     0          0
5205             1950.00    0          267.00     0          0
5206             1950.00    0          350.00     0          0
5207             1950.00    0          350.00     0          0
5208             1950.00    0          350.00     0          0
5209             1950.00    0          228.00     0          0
5210             1950.00    0          312.00     0          0
5211             1950.00    0          410.00     0          0
5212             1900.00    0          210.00     0          0
5213             1900.00    0          340.00     0          0
5214             1900.00    0          252.00     0          0
5215             1900.00    0          270.00     0          0
5216             1850.00    0          310.00     0          0
5217             1850.00    0          192.00     0          0
5218             1850.00    0          300.00     0          0
5219             1850.00    0          197.00     0          0
5220             1850.00    0          194.00     0          0
5221             1800.00    0          190.00     0          0
5222             1800.00    0          390.00     0          0
5223             1800.00    0          233.00     0          0
75223            1800.00    0          233.00     0          0
5224             1600.00    0          33.00      0          0
5225             1600.00    0          130.00     0          0
5226             1350.00    0          60.00      0          0
5227             1350.00    0          200.00     0          0
5228             1350.00    0          260.00     0          0
75228            1350.00    0          260.00     0          0
5229             1350.00    0          300.00     0          0
5230             1150.00    0          52.00      0          0
5231             1150.00    0          110.00     0          0
5302             1950.00    0          300.00     0          0
5303             1950.00    0          650.00     0          0
5304             1950.00    0          40.00      0          0
75304            1200.00    0          43.13      0          0
5305             1200.00    0          43.13      0          0
5306             1200.00    0          110.00     0          0
5401             1300.00    0          20.00      0          0
5402             1300.00    0          52.00      0          0
5403             1300.00    0          66.00      0          0
5404             1300.00    0          60.00      0          0
5405             1300.00    0          221.00     0          0
5406             1300.00    0          553.00     0          0
5407             1300.00    0          260.00     0          0
5408             1300.00    0          260.00     0          0
5409             1300.00    0          354.00     0          0
5410             1300.00    0          223.00     0          0
5411             1300.00    0          342.50     0          0
5412             1300.00    0          915.00     0          0
5413             1300.00    0          347.00     0          0
5414             1300.00    0          347.00     0          0
5415             1300.00    0          540.00     0          0
5416             1300.00    0          332.50     0          0
5417             1300.00    0          777.00     0          0
75417            1300.00    0          777.00     0          0
5418             1300.00    0          600.00     0          0
5608             1300.00    0          720.00     0          0
5602             1150.00    0          360.00     0          0
5603             1150.00    0          145.00     0          0
5604             1150.00    0          150.00     0          0
5605             1150.00    0          350.00     0          0
5606             1150.00    0          600.00     0          0
5607             1150.00    0          610.00     0          0
75608            1150.00    0          570.00     0          0
5609             1300.00    0          720.00     0          0
5702             1275.00    0          31.00      0          0
5703             1275.00    0          285.00     0          0
5704             1275.00    0          412.00     0          0
5705             1275.00    0          533.00     0          0
5706             1275.00    0          475.00     0          0
5707             1275.00    0          545.00     0          0
5708             1275.00    0          545.00     0          0
5709             1275.00    0          525.00     0          0
5710             1275.00    0          475.00     0          0
5711             1275.00    0          455.00     0          0
5712             1275.00    0          415.00     0          0
5713             1275.00    0          375.00     0          0
5714             1275.00    0          115.00     0          0
5715             1275.00    0          375.00     0          0
5716             1275.00    0          470.00     0          0
5717             1275.00    0          428.00     0          0
5718             1275.00    0          385.00     0          0
5719             1275.00    0          365.00     0          0
5720             1200.00    0          110.00     0          0
5721             1200.00    0          62.00      0          0
5722             1200.00    0          220.00     0          0
5723             1200.00    0          109.00     0          0
5725             1200.00    0          130.00     0          0
5727             1200.00    0          129.00     0          0

[CONDUITS]
;;Name           From             To               Length     Roughness  InOffset   OutOffset  InitFlow   MaxFlow
;;-------------- ---------------- ---------------- ---------- ---------- ---------- ---------- ---------- ----------
P5201            85201            5202             5202.00    0.0130     1933.00    1879.00    0          0
P5202            5202             5203             5203.00    0.0130     1879.00    1855.00    0          0
P5203            5203             5204             5204.00    0.0120     1855.00    1635.00    0          0
P5204            5204             5205             5205.00    0.0120     1635.00    1683.00    0          0
P5205            5205             5206             5206.00    0.0120     1683.00    1600.00    0          0
P5206            5206             5207             5207.00    0.0120     1600.00    1600.00    0          0
P5207            5207             5208             5208.00    0.0120     1600.00    1600.00    0          0
P5208            5208             5209             5209.00    0.0120     1600.00    1722.00    0          0
P5209            5209             5210             5210.00    0.0120     1722.00    1638.00    0          0
P5210            5210             5211             5211.00    0.0120     1638.00    1540.00    0          0
P5211            5211             5212             5212.00    0.0120     1540.00    1690.00    0          0
P5212            5212             5213             5213.00    0.0120     1690.00    1560.00    0          0
P5213            5213             5214             5214.00    0.0120     1560.00    1648.00    0          0
P5214            5214             5215             5215.00    0.0120     1648.00    1630.00    0          0
P5215            5215             5216             5216.00    0.0120     1630.00    1540.00    0          0
P5216            5216             5217             5217.00    0.0120     1540.00    1658.00    0          0
P5217            5217             5218             5218.00    0.0120     1658.00    1550.00    0          0
P5218            5218             5219             5219.00    0.0120     1550.00    1653.00    0          0
P5219            5219             5220             5220.00    0.0120     1653.00    1656.00    0          0
P5220            5220             5221             5221.00    0.0120     1656.00    1610.00    0          0
P5221            5221             5222             5222.00    0.0120     1610.00    1410.00    0          0
P5222            5222             5223             5223.00    0.0120     1410.00    1567.00    0          0
P5223            75223            5224             5224.00    0.0120     1567.00    1567.00    0          0
P5224            5224             5225             5225.00    0.0120     1567.00    1470.00    0          0
P5225            5225             5226             5226.00    0.0120     1470.00    1290.00    0          0
P5226            5226             5227             5227.00    0.0120     1290.00    1150.00    0          0
P5227            5227             5228             5228.00    0.0120     1150.00    1090.00    0          0
P5228            75228            5229             5229.00    0.0120     1090.00    1050.00    0          0
P5229            5229             5230             5230.00    0.0130     1050.00    1098.00    0          0
P5230            5230             5231             5231.00    0.0130     1098.00    1040.00    0          0
P5301            5302             5210             5210.00    0.0130     1650.00    1638.00    0          0
P5302            5302             5303             5303.00    0.0130     1650.00    1300.00    0          0
P5303            5303             5304             5304.00    0.0130     1300.00    1160.00    0          0
P5304            75304            5305             5305.00    0.0130     1156.90    1156.90    0          0
P5305            5306             5305             5305.00    0.0130     1090.00    1156.90    0          0
P5401            5401             5402             5402.00    0.0130     1280.00    1248.00    0          0
P5402            5403             5402             5402.00    0.0120     1234.00    1248.00    0          0
P5403            5404             5403             5403.00    0.0120     1240.00    1234.00    0          0
P5404            5405             5404             5404.00    0.0120     1079.00    1240.00    0          0
P5405            5406             5405             5405.00    0.0120     747.00     1079.00    0          0
P5406            5407             5406             5406.00    0.0120     1040.00    747.00     0          0
P5407            5408             5407             5407.00    0.0120     1040.00    1040.00    0          0
P5408            5409             5408             5408.00    0.0120     946.00     1040.00    0          0
P5409            5410             5409             5409.00    0.0120     1077.00    946.00     0          0
P5410            5411             5410             5410.00    0.0120     957.50     1077.00    0          0
P5411            5412             5411             5411.00    0.0120     385.00     957.50     0          0
P5412            5413             5412             5412.00    0.0120     953.00     385.00     0          0
P5413            5414             5413             5413.00    0.0120     953.00     953.00     0          0
P5414            5415             5414             5414.00    0.0120     760.00     953.00     0          0
P5415            5416             5415             5415.00    0.0120     967.50     760.00     0          0
P5416            5417             5416             5416.00    0.0120     523.00     967.50     0          0
P75417           5417             75417            100.00     0.0120     523.00     523.00     0          0
P5417            75417            5418             5418.00    0.0120     523.00     700.00     0          0
P5418            5608             5418             5418.00    0.0120     580.00     700.00     0          0
P5601            5231             5602             5602.00    0.0120     1040.00    790.00     0          0
P5602            5603             5602             5602.00    0.0120     1005.00    790.00     0          0
P5603            5604             5603             5603.00    0.0120     1000.00    1005.00    0          0
P5604            5605             5604             5604.00    0.0120     800.00     1000.00    0          0
P5605            5606             5605             5605.00    0.0120     550.00     800.00     0          0
P5606            5607             5606             5606.00    0.0120     540.00     550.00     0          0
P5607            5607             75608            75608.00   0.0120     540.00     580.00     0          0
P5609            5608             5609             100.00     0.0120     580.00     580.00     0          0
P5702            5702             5703             5703.00    0.0120     1244.00    990.00     0          0
P5703            5703             5704             5704.00    0.0120     990.00     863.00     0          0
P5704            5704             5705             5705.00    0.0120     863.00     742.00     0          0
P5705            5705             5706             5706.00    0.0120     742.00     800.00     0          0
P5706            5706             5707             5707.00    0.0120     800.00     730.00     0          0
P5707            5707             5708             5708.00    0.0120     730.00     730.00     0          0
P5708            5708             5709             5709.00    0.0120     730.00     750.00     0          0
P5709            5709             5710             5710.00    0.0120     750.00     800.00     0          0
P5710            5710             5711             5711.00    0.0120     800.00     820.00     0          0
P5711            5711             5712             5712.00    0.0120     820.00     860.00     0          0
P5712            5712             5713             5713.00    0.0120     860.00     900.00     0          0
P5713            5713             5714             5714.00    0.0120     900.00     1160.00    0          0
P5714            5714             5715             5715.00    0.0120     1160.00    900.00     0          0
P5715            5715             5716             5716.00    0.0120     900.00     805.00     0          0
P5716            5716             5717             5717.00    0.0120     805.00     847.00     0          0
P5717            5717             5718             5718.00    0.0120     847.00     890.00     0          0
P5718            5718             5719             5719.00    0.0120     890.00     910.00     0          0
P5719            5719             5720             5720.00    0.0120     910.00     1090.00    0          0
P5720            5720             5721             5721.00    0.0120     1090.00    1138.00    0          0
P5721            5721             5722             5722.00    0.0120     1138.00    980.00     0          0
P5722            5722             5723             5723.00    0.0120     980.00     1091.00    0          0
P5723            5723             5306             5306.00    0.0120     1091.00    1090.00    0          0
P5724            5306             5725             5725.00    0.0120     1090.00    1070.00    0          0
P5725            5725             5231             5231.00    0.0120     1070.00    1040.00    0          0
P5726            5231             5727             5727.00    0.0120     1040.00    1071.00    0          0
P75223           5223             75223            33.00      0.0140     1567.00    1567.00    0          0
P75228           5228             75228            33.00      0.0140     1090.00    1090.00    0          0
YLinda1          75608            5608             33.00      0.0140     580.00     580.00     0          0

[XSECTIONS]
;;Link           Shape        Geom1      Geom2      Geom3      Geom4      Barrels
;;-------------- ------------ ---------- ---------- ---------- ---------- ----------
P5201            CIRCULAR     11.30      0          0          0          1
P5202            CIRCULAR     11.30      0          0          0          1
P5203            CIRCULAR     10.00      0          0          0          1
P5204            CIRCULAR     10.00      0          0          0          1
P5205            CIRCULAR     10.00      0          0          0          1
P5206            CIRCULAR     10.00      0          0          0          1
P5207            CIRCULAR     10.00      0          0          0          1
P5208            CIRCULAR     10.00      0          0          0          1
P5209            CIRCULAR     10.00      0          0          0          1
P5210            CIRCULAR     8.00       0          0          0          1
P5211            CIRCULAR     8.00       0          0          0          1
P5212            CIRCULAR     8.00       0          0          0          1
P5213            CIRCULAR     8.00       0          0          0          1
P5214            CIRCULAR     8.00       0          0          0          1
P5215            CIRCULAR     10.00      0          0          0          1
P5216            CIRCULAR     10.00      0          0          0          1
P5217            CIRCULAR     10.00      0          0          0          1
P5218            CIRCULAR     10.00      0          0          0          1
P5219            CIRCULAR     10.00      0          0          0          1
P5220            CIRCULAR     8.00       0          0          0          1
P5221            CIRCULAR     8.00       0          0          0          1
P5222            CIRCULAR     8.00       0          0          0          1
P5223            CIRCULAR     8.00       0          0          0          1
P5224            CIRCULAR     8.00       0          0          0          1
P5225            CIRCULAR     8.00       0          0          0          1
P5226            CIRCULAR     8.00       0          0          0          1
P5227            CIRCULAR     8.00       0          0          0          1
P5228            CIRCULAR     15.50      0          0          0          1
P5229            CIRCULAR     12.50      0          0          0          1
P5230            CIRCULAR     12.50      0          0          0          1
P5301            CIRCULAR     12.00      0          0          0          1
P5302            CIRCULAR     12.00      0          0          0          1
P5303            CIRCULAR     12.00      0          0          0          1
P5304            CIRCULAR     12.00      0          0          0          1
P5305            CIRCULAR     12.00      0          0          0          1
P5401            CIRCULAR     10.10      0          0          0          1
P5402            CIRCULAR     9.00       0          0          0          1
P5403            CIRCULAR     9.00       0          0          0          1
P5404            CIRCULAR     9.00       0          0          0          1
P5405            CIRCULAR     9.00       0          0          0          1
P5406            CIRCULAR     9.00       0          0          0          1
P5407            CIRCULAR     9.00       0          0          0          1
P5408            CIRCULAR     9.00       0          0          0          1
P5409            CIRCULAR     9.00       0          0          0          1
P5410            CIRCULAR     9.00       0          0          0          1
P5411            CIRCULAR     9.00       0          0          0          1
P5412            CIRCULAR     9.00       0          0          0          1
P5413            CIRCULAR     10.10      0          0          0          1
P5414            CIRCULAR     9.00       0          0          0          1
P5415            CIRCULAR     9.00       0          0          0          1
P5416            CIRCULAR     8.00       0          0          0          1
P75417           CIRCULAR     8.00       0          0          0          1
P5417            CIRCULAR     8.00       0          0          0          1
P5418            CIRCULAR     8.00       0          0          0          1
P5601            CIRCULAR     10.00      0          0          0          1
P5602            CIRCULAR     10.00      0          0          0          1
P5603            CIRCULAR     8.00       0          0          0          1
P5604            CIRCULAR     8.00       0          0          0          1
P5605            CIRCULAR     8.00       0          0          0          1
P5606            CIRCULAR     8.00       0          0          0          1
P5607            CIRCULAR     8.00       0          0          0          1
P5609            CIRCULAR     8.00       0          0          0          1
P5702            CIRCULAR     11.70      0          0          0          1
P5703            CIRCULAR     10.50      0          0          0          1
P5704            CIRCULAR     10.30      0          0          0          1
P5705            CIRCULAR     10.50      0          0          0          1
P5706            CIRCULAR     10.70      0          0          0          1
P5707            CIRCULAR     9.70       0          0          0          1
P5708            CIRCULAR     10.70      0          0          0          1
P5709            CIRCULAR     10.80      0          0          0          1
P5710            CIRCULAR     11.00      0          0          0          1
P5711            CIRCULAR     11.20      0          0          0          1
P5712            CIRCULAR     11.30      0          0          0          1
P5713            CIRCULAR     11.50      0          0          0          1
P5714            CIRCULAR     11.50      0          0          0          1
P5715            CIRCULAR     11.00      0          0          0          1
P5716            CIRCULAR     11.20      0          0          0          1
P5717            CIRCULAR     11.30      0          0          0          1
P5718            CIRCULAR     11.50      0          0          0          1
P5719            CIRCULAR     11.50      0          0          0          1
P5720            CIRCULAR     11.70      0          0          0          1
P5721            CIRCULAR     11.70      0          0          0          1
P5722            CIRCULAR     11.70      0          0          0          1
P5723            CIRCULAR     12.70      0          0          0          1
P5724            CIRCULAR     11.70      0          0          0          1
P5725            CIRCULAR     11.70      0          0          0          1
P5726            CIRCULAR     11.70      0          0          0          1
P75223           CIRCULAR     8.00       0          0          0          1
P75228           CIRCULAR     8.00       0          0          0          1
YLinda1          CIRCULAR     8.00       0          0          0          1

[LOSSES]
;;Link           Inlet      Outlet     Average    Flap Gate
;;-------------- ---------- ---------- ---------- ----------
P5201            0          0          0          NO
P5202            0          0          0          NO
P5203            0          0          0          NO
P5204            0          0          0          NO
P5205            0          0          0          NO
P5206            0          0          0          NO
P5207            0          0          0          NO
P5208            0          0          0          NO
P5209            0          0          0          NO
P5210            0          0          0          NO
P5211            0          0          0          NO
P5212            0          0          0          NO
P5213            0          0          0          NO
P5214            0          0          0          NO
P5215            0          0          0          NO
P5216            0          0          0          NO
P5217            0          0          0          NO
P5218            0          0          0          NO
P5219            0          0          0          NO
P5220            0          0          0          NO
P5221            0          0          0          NO
P5222            0          0          0          NO
P5223            0          0          0          NO
P5224            0          0          0          NO
P5225            0          0          0          NO
P5226            0          0          0          NO
P5227            0          0          0          NO
P5228            0          0          0          NO
P5229            0          0          0          NO
P5230            0          0          0          NO
P5301            0          0          0          NO
P5302            0          0          0          NO
P5303            0          0          0          NO
P5304            0          0          0          NO
P5305            0          0          0          NO
P5401            0          0          0          NO
P5402            0          0          0          NO
P5403            0          0          0          NO
P5404            0          0          0          NO
P5405            0          0          0          NO
P5406            0          0          0          NO
P5407            0          0          0          NO
P5408            0          0          0          NO
P5409            0          0          0          NO
P5410            0          0          0          NO
P5411            0          0          0          NO
P5412            0          0          0          NO
P5413            0          0          0          NO
P5414            0          0          0          NO
P5415            0          0          0          NO
P5416            0          0          0          NO
P75417           0          0          0          NO
P5417            0          0          0          NO
P5418            0          0          0          NO
P5601            0          0          0          NO
P5602            0          0          0          NO
P5603            0          0          0          NO
P5604            0          0          0          NO
P5605            0          0          0          NO
P5606            0          0          0          NO
P5607            0          0          0          NO
P5609            0          0          0          NO
P5702            0          0          0          NO
P5703            0          0          0          NO
P5704            0          0          0          NO
P5705            0          0          0          NO
P5706            0          0          0          NO
P5707            0          0          0          NO
P5708            0          0          0          NO
P5709            0          0          0          NO
P5710            0          0          0          NO
P5711            0          0          0          NO
P5712            0          0          0          NO
P5713            0          0          0          NO
P5714            0          0          0          NO
P5715            0          0          0          NO
P5716            0          0          0          NO
P5717            0          0          0          NO
P5718            0          0          0          NO
P5719            0          0          0          NO
P5720            0          0          0          NO
P5721            0          0          0          NO
P5722            0          0          0          NO
P5723            0          0          0          NO
P5724            0          0          0          NO
P5725            0          0          0          NO
P5726            0          0          0          NO
P75223           0          0          0          NO
P75228           0          0          0          NO
YLinda1          0          0          0          NO

[INFLOWS]
;;Node           Constituent  Time Series      Type     Mfactor  Sfactor  Baseline Pattern
;;-------------- ------------ ---------------- -------- -------- -------- -------- --------
85201            FLOW         ""               FLOW     1.0      1.0      67.00
5401             FLOW         ""               FLOW     1.0      1.0      222.50
5702             FLOW         ""               FLOW     1.0      1.0      418.00

[COORDINATES]
;;Node           X-Coord            Y-Coord
;;-------------- ------------------ ------------------
85201            407.45             232.76            
5202             408.11             232.12            
5203             408.93             231.72            
5204             409.63             231.61            
5205             410.03             231.22            
5206             410.04             230.49            
5207             409.90             229.58            
5208             410.03             228.36            
5209             410.20             227.16            
5210             410.26             225.93            
5211             410.21             225.23            
5212             410.23             224.09            
5213             410.28             223.02            
5214             410.40             221.85            
5215             410.40             220.83            
5216             410.35             219.84            
5217             410.36             219.05            
5218             410.35             218.28            
5219             410.37             217.43            
5220             410.56             216.16            