;; SWMM5 .inp converted from XPSWMM .xp file
;; Generated by XPSWMM Card Reader
;; Source format: XP_CARD | Original title: RMOC - TRANSPORT

[TITLE]
;;Project Title/Notes
RMOC - TRANSPORT

[OPTIONS]
FLOW_UNITS           CMS
INFILTRATION         HORTON
FLOW_ROUTING         DYNWAVE
LINK_OFFSETS         DEPTH
MIN_SLOPE            0.0
ALLOW_PONDING        NO
SKIP_STEADY_STATE    NO
ROUTING_STEP         00:00:10
VARIABLE_STEP        0.75
INERTIAL_DAMPING     PARTIAL
NORMAL_FLOW_LIMITED  BOTH
MAX_TRIALS           100
HEAD_TOLERANCE       .001

[JUNCTIONS]
;;Name           Elev       MaxDepth   InitDepth  SurDepth   Aponded
;;-------------- ---------- ---------- ---------- ---------- ----------
st16a            104.65     0          0          0          0
gs20             95.71      0          0          0          0
sg14             96.77      0          0          0          0
gt2              115.07     0          0          0          0
ma44             89.82      0          0          0          0
mw13+            80.67      0          0          0          0
efmar            74.98      0          0          0          0
ma59a            86.51      0          0          0          0
tr36             83.30      0          0          0          0
tr43             80.86      0          0          0          0
tr45             76.87      0          0          0          0
wa29             72.95      0          0          0          0
np26             74.92      0          0          0          0
wa28             74.00      0          0          0          0
waacres          66.85      0          0          0          0
wx8a             65.41      0          0          0          0
gc4              67.33      0          0          0          0
wx6              61.75      0          0          0          0
pc29             67.36      0          0          0          0
pc44             64.93      0          0          0          0
wn50a            56.48      0          0          0          0
wc21             86.29      0          0          0          0
wc50             74.49      0          0          0          0
wn39             64.62      0          0          0          0
wn19             61.79      0          0          0          0
bs1              86.05      0          0          0          0
mb27+            71.81      0          0          0          0
mb9+             65.99      0          0          0          0
wn6a             54.92      0          0          0          0
icchbr           59.74      0          0          0          0
pr12             57.49      0          0          0          0
bo7b             72.00      0          0          0          0
BOOTH-REG        60.00      0          0          0          0
cc51             75.18      0          0          0          0
cc72             66.32      0          0          0          0
cc81             63.74      0          0          0          0
cc85             56.85      0          0          0          0
pr13             57.67      0          0          0          0
cc95a            55.23      0          0          0          0
PREST-REG        57.42      0          0          0          0
ic1b             60.40      0          0          0          0
ic3              71.93      0          0          0          0
ic4              66.05      0          0          0          0
ic5              57.00      0          0          0          0
rr43             75.93      0          0          0          0
rr40             63.95      0          0          0          0
rr10             58.21      0          0          0          0
ri0400           57.42      0          0          0          0
rr02800          57.13      0          0          0          0
rrr              56.47      0          0          0          0
os1              55.47      0          0          0          0
rm22             58.77      0          0          0          0
xxb              46.02      0          0          0          0
hl12             61.72      0          0          0          0
os2              59.13      0          0          0          0
bd3              62.36      0          0          0          0
ah1              61.66      0          0          0          0
aw8              64.22      0          0          0          0
ah1a             62.42      0          0          0          0
ah4              62.30      0          0          0          0
os3              68.58      0          0          0          0
os4              83.82      0          0          0          0
os5              65.64      0          0          0          0
os6              56.39      0          0          0          0
ac19             89.61      0          0          0          0
gn21++           82.57      0          0          0          0
gn35a+           81.08      0          0          0          0
gn17+            79.04      0          0          0          0
gn13+            70.90      0          0          0          0
lc1a+            87.40      0          0          0          0
lc6              85.65      0          0          0          0
wrmacfar         93.00      0          0          0          0
lclynw           84.73      0          0          0          0
gn20             66.66      0          0          0          0
cr10             64.89      0          0          0          0
gn3              61.97      0          0          0          0
gnshft7          63.76      0          0          0          0
gnshft5          66.32      0          0          0          0
gnshft1          59.13      0          0          0          0
cm2              48.71      0          0          0          0
cmc              47.09      0          0          0          0
or38             56.68      0          0          0          0
ocshft5          47.62      0          0          0          0
gl23a            52.30      0          0          0          0
oc4.5            47.24      0          0          0          0
wt12a            59.46      0          0          0          0
ocshft2          52.00      0          0          0          0
ROPEC-OUT        52.42      0          0          0          0
cc82             62.09      0          0          0          0
901              62.09      0          0          0          0
SC/MERT          62.09      0          0          0          0
mb9              65.99      0          0          0          0
MBAY             65.99      0          0          0          0
903              57.00      0          0          0          0
LL/BO-OUT        57.00      0          0          0          0
KENT-REG         65.84      0          0          0          0
RCAN-REG         66.22      0          0          0          0
CATH-REG         57.00      0          0          0          0
RRIVER-REG       55.47      0          0          0          0
rich             115.00     0          0          0          0
hra              46.67      0          0          0          0
HEM1             46.67      0          0          0          0
HEM2             46.02      0          0          0          0
457              61.66      0          0          0          0
HEM4             61.66      0          0          0          0
HEM3             58.77      0          0          0          0
OC-OUT           47.62      0          0          0          0
gn20a            66.66      0          0          0          0
shaft            52.54      0          0          0          0
grit             52.54      0          0          0          0
ROPEC-BY         52.00      0          0          0          0
SCOTT-REG        63.00      0          0          0          0
SCOTT            63.00      0          0          0          0
ss15             57.03      0          0          0          0
ss14             57.24      0          0          0          0
ss10             57.98      0          0          0          0
ss5              57.41      0          0          0          0
qe7              68.14      0          0          0          0
cl3              65.10      0          0          0          0
cl11             66.19      0          0          0          0
rr1              60.00      0          0          0          0
ocr21            68.54      0          0          0          0
ocr3             68.25      0          0          0          0
ocr7             68.55      0          0          0          0
ar19             67.18      0          0          0          0
ar25             68.89      0          0          0          0
ar33             69.49      0          0          0          0
ar1              69.71      0          0          0          0
ar5              68.52      0          0          0          0
ar11             66.97      0          0          0          0
ar15             68.89      0          0          0          0
ar16             68.58      0          0          0          0
lyn3             67.04      0          0          0          0
cs1              67.82      0          0          0          0
cs3              66.73      0          0          0          0
ly6              68.86      0          0          0          0
ly1              69.30      0          0          0          0
hw6              65.23      0          0          0          0
hw1              68.52      0          0          0          0
ocr1             67.67      0          0          0          0
fl1              71.06      0          0          0          0
wa1              71.39      0          0          0          0
wa6              68.95      0          0          0          0
bk1              67.13      0          0          0          0
bk4              67.74      0          0          0          0
pr5              67.00      0          0          0          0
pr17             62.42      0          0          0          0
pr22             60.60      0          0          0          0
pr1a             65.08      0          0          0          0
mid              68.89      0          0          0          0
qe-ic            68.14      0          0          0          0
qe7a             68.14      0          0          0          0
645              68.25      0          0          0          0
prmid2           59.07      0          0          0          0
rr1out           57.16      0          0          0          0
ri0500           57.39      0          0          0          0
TUN-1            57.13      0          0          0          0
oc1-1            65.10      0          0          0          0
oc1-2            68.52      0          0          0          0
oc1-3            67.18      0          0          0          0
oc1-4            68.00      0          0          0          0
oc1-end          68.00      0          0          0          0
ri00600          60.00      0          0          0          0
ri0300           57.39      0          0          0          0
ri0200           57.90      0          0          0          0
cl3a             65.23      0          0          0          0
TUN-2            68.50      0          0          0          0
TUN-3            72.00      0          0          0          0
oc2-1            65.00      0          0          0          0
oc2-2            68.00      0          0          0          0
TUN-5            78.50      0          0          0          0
TUN-4            73.50      0          0          0          0
TUN-6            72.00      0          0          0          0
KENT-OUT         65.84      0          0          0          0
RCAN-OUT         66.22      0          0          0          0
CATH-OUT         57.00      0          0          0          0
RRIVER-OUT       55.47      0          0          0          0
CC100            56.85      0          0          0          0
CC110            56.82      0          0          0          0
CC120            56.33      0          0          0          0
WN/CC            57.68      0          0          0          0
NEW-BO           59.74      0          0          0          0
sc-con           56.82      0          0          0          0
EXIT             57.00      0          0          0          0

[STORAGE]
;;Name           Elev       MaxDepth   InitDepth  Shape      Curve/Params
;;-------------- ---------- ---------- ---------- ---------- ----------
hfhaz            95.20      0          0          FUNCTIONAL 54.80 0          0
lfhem            46.72      0          0          FUNCTIONAL 9.35 0          0
oschbr           52.42      0          0          FUNCTIONAL 34.74 0          0
cs6              68.19      -3.19      0          FUNCTIONAL 2000.00 0          0

[CONDUITS]
;;Name           From             To               Length     Roughness  InOffset   OutOffset  InitFlow   MaxFlow
;;-------------- ---------------- ---------------- ---------- ---------- ---------- ---------- ---------- ----------
Link_213         ?                ?                0          0          65.62      65.47      0          0
Link_215         ?                ?                3988.90    0.0130     65.47      57.35      0          0
Link_216         ?                ?                1000.00    0.0130     57.35      77.40      0          0
Link_237         ?                ?                1667.60    0.0130     69.32      62.64      0          0
Link_260         ?                ?                460.30     0.0130     59.13      56.21      0          0
Link_261         ?                ?                1496.00    0.0130     34.90      32.93      0          0
Link_267         ?                ?                431.90     0.0130     34.90      34.50      0          0
Link_268         ?                ?                398.70     0.0130     36.49      34.90      0          0
Link_269         ?                ?                2099.50    0.0130     37.16      35.27      0          0
Link_270         ?                ?                1529.50    0.0130     38.55      37.16      0          0
Link_283         ?                ?                1160.10    0.0130     52.45      46.54      0          0
Link_289         ?                ?                2067.20    0.0130     53.02      45.90      0          0
wa109            st16a            hfhaz            2017.90    0.0150     100.46     88.99      0          0
gs6              gs20             hfhaz            395.90     0.0150     89.25      88.42      0          0
sg16             sg14             hfhaz            1500.70    0.0150     92.03      88.99      0          0
wa83             gt2              tr36             3440.50    0.0150     112.10     80.67      0          0
ma23             ma44             ma59a            982.40     0.0150     86.78      83.40      0          0
mw29             mw13+            efmar            1476.80    0.0150     76.18      71.05      0          0
ma7              ma59a            tr36             618.00     0.0150     83.40      80.67      0          0
wa49             tr36             tr43             785.70     0.0150     80.39      77.19      0          0
wa42             tr43             tr45             239.70     0.0150     77.19      73.58      0          0
wa40             tr45             wa29             1147.60    0.0150     73.58      69.80      0          0
wa29+            wa29             wa28             106.70     0.0150     65.62      65.47      0          0
np19             np26             wa28             2341.00    0.0150     72.16      65.47      0          0
wa28+            wa28             waacres          3988.94    0.0150     65.47      57.35      0          0
wn83             wx8a             wx6              672.20     0.0150     56.28      55.64      0          0
wn80             wx6              wn50a            3473.10    0.0150     55.64      52.36      0          0
pc17             pc29             pc44             1302.30    0.0150     60.83      58.93      0          0
pc2              pc44             wn50a            260.10     0.0150     58.93      53.22      0          0
wn52             wn50a            wn39             1474.50    0.0150     52.36      51.27      0          0
wc55             wc21             wc50             2313.80    0.0150     72.73      70.22      0          0
wc26             wc50             wn39             1574.70    0.0150     70.22      59.70      0          0
wn41             wn39             wn19             3037.60    0.0150     51.27      49.63      0          0
wn21             wn19             wn6a             2110.10    0.0150     49.51      47.88      0          0
mb81             bs1              mb27+            3084.40    0.0150     80.80      66.41      0          0
mb42             mb27+            mb9+             3001.90    0.0150     66.41      59.33      0          0
mb11             mb9+             wn6a             1225.90    0.0150     59.33      49.83      0          0
wn6              wn6a             icchbr           700.40     0.0150     47.88      47.08      0          0
os16             icchbr           ic1b             90.20      0.0150     44.81      43.93      0          0
bo5              bo7b             BOOTH-REG        804.70     0.0150     49.57      46.43      0          0
cc51+            cc51             cc72             1667.56    0.0150     69.32      62.64      0          0
ca8              cc72             cc81             999.60     0.0150     62.64      57.36      0          0
pr3              pr13             pr12             49.00      0.0150     53.98      53.88      0          0
cc4              cc95a            PREST-REG        108.10     0.0150     50.29      49.74      0          0
os15             ic1b             ic3              1050.20    0.0150     43.93      42.88      0          0
os11             ic3              ic4              970.50     0.0150     42.88      41.80      0          0
os10             ic4              ic5              1270.10    0.0150     41.80      40.77      0          0
os9              ic5              os1              756.90     0.0150     40.77      39.85      0          0
rr70             rr43             rr40             259.10     0.0150     56.39      55.60      0          0
rr67             rr40             rr10             3681.40    0.0150     54.32      52.53      0          0
rr36             rr10             rr02800          1421.00    0.0150     52.53      52.15      0          0
os7              os1              os2              1468.10    0.0150     39.85      38.55      0          0
hl38             rm22             xxb              908.70     0.0150     54.10      44.13      0          0
hl26             xxb              lfhem            9.70       0.0150     43.92      43.88      0          0
hl12+            hl12             os2              460.35     0.0150     59.13      56.21      0          0
os6+             os2              os3              1529.49    0.0150     38.55      37.16      0          0
bd2              bd3              ah1              117.00     0.0150     59.26      58.98      0          0
ah11             ah1              ah4              129.00     0.0150     58.75      58.54      0          0
aw2              aw8              ah1a             205.70     0.0150     61.88      60.30      0          0
aw1              ah1a             ah4              54.30      0.0150     60.07      59.75      0          0
ah8              ah4              os3              517.80     0.0150     58.39      57.49      0          0
os5+             os3              os4              2099.46    0.0150     37.16      35.27      0          0
os4+             os4              os5              398.68     0.0150     35.27      34.90      0          0
os3+             os5              os6              431.90     0.0150     34.90      34.50      0          0
os2+             os6              oschbr           1495.96    0.0150     34.50      32.93      0          0
ac18             ac19             gn21++           1475.00    0.0150     86.53      75.30      0          0
gn89             gn21++           gn35a+           2191.90    0.0150     75.30      72.66      0          0
gn66             gn35a+           gn17+            2665.10    0.0150     72.66      69.99      0          0
gn48             gn17+            gn13+            315.20     0.0150     69.99      64.18      0          0
gn43             gn13+            gn20             1725.20    0.0150     63.73      60.70      0          0
so16             lc1a+            lc6              3584.30    0.0150     77.40      72.15      0          0
so10             lc6              lclynw           1950.10    0.0150     72.15      69.33      0          0
wr4              wrmacfar         lclynw           3105.30    0.0150     73.57      69.68      0          0
so8              lclynw           gn20             9698.00    0.0150     69.11      60.55      0          0
cr9              cr10             gn3              684.90     0.0150     60.65      58.56      0          0
gn12             gn3              gnshft7          121.20     0.0150     57.95      56.89      0          0
gn10             gnshft7          gnshft5          887.80     0.0150     56.89      56.00      0          0
gn8              gnshft5          gnshft1          3375.20    0.0150     56.00      52.45      0          0
oc10             cm2              cmc              18.20      0.0150     44.72      44.39      0          0
oc9              cmc              ocshft5          176.80     0.0150     40.31      40.05      0          0
or38+            or38             ocshft5          2067.18    0.0150     53.02      43.90      0          0
oc8              ocshft5          oc4.5            14.60      0.0150     39.61      39.50      0          0
gl22             gl23a            oc4.5            2638.50    0.0150     42.30      39.50      0          0
oc7              oc4.5            ocshft2          1973.70    0.0150     39.50      37.60      0          0
wt13             wt12a            ocshft2          1482.80    0.0150     54.18      43.59      0          0
oc4              ocshft2          oschbr           3230.90    0.0150     37.60      34.35      0          0
gc8              gc4              wx6              1131.24    0.0150     60.02      57.70      0          0
cc81+            cc81             cc82             130.70     0.0150     57.36      56.99      0          0
cc82+            cc82             cc85             261.60     0.0150     56.99      54.12      0          0
9001             901              SC/MERT          500.00     0.0150     53.50      51.00      0          0
902              mb9              MBAY             1000.00    0.0150     63.50      60.00      0          0
MOONEY           mb9              mb9+             250.00     0.0150     63.00      62.00      0          0
LL/BO-OV         903              LL/BO-OUT        500.00     0.0150     45.00      42.50      0          0
BOOTH-TH         BOOTH-REG        ic1b             49.20      0.0150     46.22      44.30      0          0
PREST-TH         PREST-REG        ic1b             72.20      0.0150     49.74      44.30      0          0
KENT-TH          KENT-REG         ic3              188.60     0.0150     61.57      43.79      0          0
RCAN-TH          RCAN-REG         ic4              4.00       0.0150     48.32      47.45      0          0
CATH-TH          CATH-REG         ic5              4.80       0.0150     49.21      48.08      0          0
rr7              rrr              RRIVER-REG       526.70     0.0150     48.98      47.62      0          0
RRIVER-TH        RRIVER-REG       os1              100.00     0.0150     46.47      40.56      0          0
hra-ovf          hra              HEM1             100.00     0.0150     45.05      44.55      0          0
hraa             hra              lfhem            10.00      0.0150     44.74      44.73      0          0
xxb-ovf          xxb              HEM2             100.00     0.0150     44.23      43.73      0          0
458              ?                ?                100.00     0.0150     59.13      58.38      0          0
459              ?                ?                100.00     0.0150     60.30      58.63      0          0
ah-ovf           457              HEM4             100.00     0.0150     58.63      58.13      0          0
rm-ovf           rm22             HEM3             100.00     0.0150     54.44      51.94      0          0
oc-ovf           ocshft5          OC-OUT           100.00     0.0150     45.72      44.72      0          0
gn29             gn20a            gn3              2447.36    0.0150     60.55      57.95      0          0
south            gn20             shaft            7318.00    0.0150     43.08      36.50      0          0
sh-gr            shaft            grit             200.00     0.0150     48.50      48.40      0          0
gn3+             gnshft1          grit             1160.10    0.0150     52.45      46.54      0          0
outfall          grit             ROPEC-OUT        500.00     0.0150     46.54      37.00      0          0
BY-ROPEC         oschbr           ROPEC-BY         200.00     0.0150     45.11      44.11      0          0
SC-IN            SCOTT            SCOTT-REG        100.00     0.0150     54.75      54.50      0          0
493              ?                ?                129.60     0.0140     52.01      51.69      0          0
496              ?                ?                421.20     0.0140     53.71      52.81      0          0
497              ?                ?                313.32     0.0140     52.81      52.19      0          0
498              ?                ?                88.39      0.0140     52.19      52.01      0          0
502              ?                ?                536.76     0.0140     60.33      58.96      0          0
504              ?                ?                341.07     0.0140     58.96      55.94      0          0
507              ?                ?                356.22     0.0140     61.94      60.38      0          0
513              ?                ?                206.66     0.0140     61.86      61.57      0          0
515              ?                ?                534.33     0.0140     61.57      60.57      0          0
518              ?                ?                203.61     0.0140     58.95      58.64      0          0
521              ?                ?                451.72     0.0140     65.10      64.19      0          0
528              ?                ?                261.53     0.0140     62.14      61.57      0          0
530              ?                ?                1092.72    0.0140     58.47      55.58      0          0
538              ?                ?                85.04      0.0140     61.16      60.59      0          0
540              ?                ?                302.67     0.0140     60.14      59.60      0          0
541              ?                ?                292.91     0.0140     59.60      58.47      0          0
544              ?                ?                246.59     0.0140     62.75      60.14      0          0
546              ?                ?                340.47     0.0140     64.44      62.75      0          0
551              ?                ?                422.51     0.0140     63.58      62.46      0          0
555              ?                ?                279.50     0.0140     62.99      62.48      0          0
558              ?                ?                550.77     0.0140     68.42      66.09      0          0
560              ?                ?                694.66     0.0140     66.09      64.38      0          0
561              ?                ?                317.61     0.0140     64.77      60.54      0          0
564              ?                ?                228.44     0.0140     62.80      62.28      0          0
565              ?                ?                121.16     0.0140     62.28      62.18      0          0
568              ?                ?                1048.00    0.0140     60.75      58.71      0          0
570              ?                ?                500.00     0.0140     58.71      56.93      0          0
577              ?                ?                399.29     0.0140     61.54      60.75      0          0
589              ?                ?                500.00     0.0140     60.00      58.95      0          0
599              ?                ?                76.11      0.0140     64.05      63.36      0          0
600              ?                ?                577.39     0.0140     56.93      53.98      0          0
602              ?                ?                200.00     0.0140     55.58      55.00      0          0
607              ?                ?                497.69     0.0140     58.64      53.71      0          0
647              ?                ?                377.03     0.0140     62.33      61.86      0          0
657              ?                ?                499.90     0.0150     53.25      50.29      0          0
664              ?                ?                648.55     0.0140     54.47      54.10      0          0
665              ?                ?                10.00      0.0140     55.94      54.47      0          0
672              ?                ?                230.00     0.0140     61.20      60.83      0          0
674              ?                ?                370.00     0.0140     60.83      60.24      0          0
684              ?                ?                200.00     0.0140     60.24      59.92      0          0
686              ?                ?                100.00     0.0140     59.92      59.80      0          0
689              ?                ?                1400.00    0.0140     55.59      54.47      0          0