;; SWMM5 .inp converted from XPSWMM .xp file
;; Generated by XPSWMM Card Reader
;; Source format: XP_CARD | Original title: LAKE CITY DRAINAGE BASIN - EXISTING CONDITION 1992

[TITLE]
;;Project Title/Notes
LAKE CITY DRAINAGE BASIN - EXISTING CONDITION 1992

[OPTIONS]
FLOW_UNITS           CFS
INFILTRATION         HORTON
FLOW_ROUTING         DYNWAVE
LINK_OFFSETS         DEPTH
MIN_SLOPE            0.0
ALLOW_PONDING        NO
SKIP_STEADY_STATE    NO
ROUTING_STEP         00:00:10
VARIABLE_STEP        0.75
INERTIAL_DAMPING     NONE
NORMAL_FLOW_LIMITED  BOTH
MAX_TRIALS           50

[JUNCTIONS]
;;Name           Elev       MaxDepth   InitDepth  SurDepth   Aponded
;;-------------- ---------- ---------- ---------- ---------- ----------
465              193.20     0          0          0          0
475              191.50     0          0          0          0
485              175.50     0          0          0          0
495              168.90     0          0          0          0
505              168.10     0          0          0          0
515              168.00     0          0          0          0
565              167.90     0          0          0          0
575              167.10     0          0          0          0
585              165.70     0          0          0          0
595              165.50     0          0          0          0
605              160.50     0          0          0          0
625              155.50     0          0          0          0
635              152.50     0          0          0          0
645              150.50     0          0          0          0
655              140.50     0          0          0          0
665              135.00     0          0          0          0
675              125.00     0          0          0          0
679              124.00     0          0          0          0
685              90.50      0          0          0          0
695              80.50      0          0          0          0
725              91.50      0          0          0          0
735              90.70      0          0          0          0
705              75.50      0          0          0          0

[CONDUITS]
;;Name           From             To               Length     Roughness  InOffset   OutOffset  InitFlow   MaxFlow
;;-------------- ---------------- ---------------- ---------- ---------- ---------- ---------- ---------- ----------
480              465              475              550.00     0.0130     185.50     183.90     0          0
490              475              485              750.00     0.0130     183.90     167.80     0          0
500              485              495              150.00     0.0350     167.80     161.80     0          0
510              495              505              70.00      0.0130     161.80     160.90     0          0
520              505              515              100.00     0.0130     160.90     160.50     0          0
530              515              565              70.00      0.0130     160.50     160.10     0          0
570              565              575              77.00      0.0130     160.10     159.50     0          0
580              575              585              120.00     0.0130     159.50     159.00     0          0
590              585              595              172.00     0.0130     159.00     157.50     0          0
600              595              605              130.00     0.0130     157.50     153.10     0          0
620              605              625              300.00     0.0350     153.10     145.10     0          0
630              625              635              130.00     0.0130     145.10     141.70     0          0
640              635              645              350.00     0.0350     141.70     137.50     0          0
650              645              655              110.00     0.0130     137.50     134.50     0          0
660              655              665              600.00     0.0350     134.50     119.50     0          0
670              665              675              69.00      0.0130     119.50     116.50     0          0
680              675              679              650.00     0.0350     116.50     100.00     0          0
6802             679              685              650.00     0.0350     100.00     78.20      0          0
690              700              695              56.00      0.0130     78.20      72.80      0          0
720              725              735              330.00     0.0350     83.50      79.10      0          0
730              735              695              120.00     0.0350     79.10      72.80      0          0
710              695              705              350.00     0.0350     72.80      72.00      0          0

[XSECTIONS]
;;Link           Shape        Geom1      Geom2      Geom3      Geom4      Barrels
;;-------------- ------------ ---------- ---------- ---------- ---------- ----------
480              CIRCULAR     2.00       0          0          0          1
490              CIRCULAR     2.50       0          0          0          1
500              TRAPEZOIDAL  4.50       6.00       0          0          1
510              CIRCULAR     4.00       0          0          0          1
520              CIRCULAR     5.00       0          0          0          1
530              CIRCULAR     5.00       0          0          0          1
570              CIRCULAR     5.00       0          0          0          1
580              CIRCULAR     5.00       0          0          0          1
590              CIRCULAR     5.00       0          0          0          1
600              CIRCULAR     5.00       0          0          0          1
620              TRAPEZOIDAL  5.00       7.50       0          0          1
630              CIRCULAR     2.00       0          0          0          1
640              TRAPEZOIDAL  5.00       4.00       0          0          1
650              CIRCULAR     2.50       0          0          0          1
660              TRAPEZOIDAL  5.00       4.00       0          0          1
670              CIRCULAR     2.50       0          0          0          1
680              TRAPEZOIDAL  5.00       4.00       0          0          1
6802             TRAPEZOIDAL  5.00       4.00       0          0          1
690              CIRCULAR     3.00       0          0          0          1
720              TRAPEZOIDAL  5.00       4.00       0          0          1
730              RECT_CLOSED  6.70       4.90       0          0          1
710              TRAPEZOIDAL  3.00       4.00       0          0          1

[LOSSES]
;;Link           Inlet      Outlet     Average    Flap Gate
;;-------------- ---------- ---------- ---------- ----------
480              0          0          0          NO
490              0          0          0          NO
500              0          0          0          NO
510              0          0          0          NO
520              0          0          0          NO
530              0          0          0          NO
570              0          0          0          NO
580              0          0          0          NO
590              0          0          0          NO
600              0          0          0          NO
620              0          0          0          NO
630              0          0          0          NO
640              0          0          0          NO
650              0          0          0          NO
660              0          0          0          NO
670              0          0          0          NO
680              0          0          0          NO
6802             0          0          0          NO
690              0          0          0          NO
720              0          0          0          NO
730              0          0          0          NO
710              0          0          0          NO

[COORDINATES]
;;Node           X-Coord            Y-Coord
;;-------------- ------------------ ------------------
465              -306.55            -35.27            
475              -206.55            -35.27            
485              -106.55            -35.27            
495              -6.55              -35.27            
505              93.45              -35.27            
515              193.45             -35.27            
565              293.45             -35.27            
575              393.45             -35.27            
585              493.45             -35.27            
595              593.45             -35.27            
605              693.45             -35.27            
625              793.45             -35.27            
635              893.45             -35.27            
645              993.45             -35.27            
655              1093.45            -35.27            
665              1193.45            -35.27            
675              1293.45            -35.27            
679              1393.45            -35.27            
685              1493.45            -35.27            
695              1593.45            -35.27            
725              1593.45            164.73            
735              1593.45            64.73             
705              1693.45            -35.27            

[MAP]
DIMENSIONS -306.55 -35.27 1693.45 164.73
Units      None

[REPORT]
INPUT            YES
SUBCATCHMENTS    ALL
NODES            ALL
LINKS            ALL



