;; SWMM5 .inp converted from XPSWMM .xp file
;; Generated by XPSWMM Card Reader
;; Source format: XP_CARD | Original title: Glaise Creek Watershed 15-year Storm Event

[TITLE]
;;Project Title/Notes
Glaise Creek Watershed 15-year Storm Event

[OPTIONS]
FLOW_UNITS           CFS
INFILTRATION         HORTON
FLOW_ROUTING         DYNWAVE
LINK_OFFSETS         DEPTH
MIN_SLOPE            0.0
ALLOW_PONDING        NO
SKIP_STEADY_STATE    NO
ROUTING_STEP         00:00:05
VARIABLE_STEP        0.75
INERTIAL_DAMPING     PARTIAL
NORMAL_FLOW_LIMITED  BOTH
MAX_TRIALS           50
HEAD_TOLERANCE       0.00033

[JUNCTIONS]
;;Name           Elev       MaxDepth   InitDepth  SurDepth   Aponded
;;-------------- ---------- ---------- ---------- ---------- ----------
22F4008C         521.56     0          0          0          0
22F4009C         520.60     0          0          0          0
22F4063C         528.56     0          0          0          0
22F4078C         527.60     0          0          0          0
22F4079C         526.60     0          0          0          0
22F4092C         525.56     0          0          0          0
22F4093C         524.00     0          0          0          0
22F4106C         522.56     0          0          0          0
22F4107C         522.00     0          0          0          0
22F4108C         522.00     0          0          0          0
22G3213C         567.69     0          0          0          0
23F1174C         551.49     0          0          0          0
23F1175C         548.79     0          0          0          0
23F1187C         546.89     0          0          0          0
23F1191C         547.09     0          0          0          0
23F1195C         546.52     0          0          0          0
23F1204C         554.00     0          0          0          0
23F1205C         556.69     0          0          0          0
23F1206C         559.69     0          0          0          0
23F1210C         561.69     0          0          0          0
23F1238C         523.80     0          0          0          0
23F1241C         523.16     0          0          0          0
23F1244C         522.40     0          0          0          0
23F1257C         519.90     0          0          0          0
23F1265C         521.13     0          0          0          0
23F1278C         518.70     0          0          0          0
23F1284C         519.56     0          0          0          0
23F1296C         518.00     0          0          0          0
23F1297C         519.00     0          0          0          0
23F1300C         517.70     0          0          0          0
23F1314C         544.69     0          0          0          0
23F1319C         545.50     0          0          0          0
23F1322C         546.00     0          0          0          0
23F1388C         517.56     0          0          0          0
23F4119C         547.19     0          0          0          0
23F4156C         525.00     0          0          0          0
23F4157C         525.00     0          0          0          0
23F4160C         524.69     0          0          0          0
23F4163C         526.69     0          0          0          0
23F4176C         528.19     0          0          0          0
23F4177C         529.79     0          0          0          0
23F4187C         536.69     0          0          0          0
23F4189C         540.69     0          0          0          0
23F4193C         532.19     0          0          0          0
23F4195C         532.19     0          0          0          0
23F4256C         526.69     0          0          0          0
23F4257C         525.69     0          0          0          0
23F4259C         510.70     0          0          0          0
23F4262C         526.00     0          0          0          0
23F4265C         526.00     0          0          0          0
23F4270C         525.69     0          0          0          0
23F4283C         524.00     0          0          0          0
23F4284C         523.69     0          0          0          0
23F4334C         533.69     0          0          0          0
23F4345C         544.19     0          0          0          0
23F4386C         511.25     0          0          0          0
23F4396C         506.00     0          0          0          0
23F4400C         506.11     0          0          0          0
23F4401C         510.00     0          0          0          0
23G2041C         518.50     0          0          0          0
23G2069C         523.69     0          0          0          0
23G2076C         540.69     0          0          0          0
23G2079C         558.69     0          0          0          0
23G2176C         510.50     0          0          0          0
23G2187C         511.93     0          0          0          0
23G2189C         511.00     0          0          0          0
23G2203C         511.00     0          0          0          0
23G2207C         510.19     0          0          0          0
23G2210C         510.50     0          0          0          0
23G2219C         523.69     0          0          0          0
23G2221C         520.69     0          0          0          0
23G2222C         525.20     0          0          0          0
23G2223C         517.39     0          0          0          0
23G2243C         531.20     0          0          0          0
23G3027C         502.50     0          0          0          0
23G3033C         503.00     0          0          0          0
23G3034C         502.40     0          0          0          0
23G3042C         508.00     0          0          0          0
23G3043C         510.00     0          0          0          0
23G3046C         502.32     0          0          0          0
23G3049C         502.40     0          0          0          0
23G3050C         502.40     0          0          0          0
23G3059C         505.12     0          0          0          0
23G3060C         497.94     0          0          0          0
23G3061C         502.50     0          0          0          0
23G3064C         501.19     0          0          0          0
23G3066C         506.62     0          0          0          0
23G3071C         505.40     0          0          0          0
23G3279C         500.60     0          0          0          0
23G3373C         506.00     0          0          0          0
23G3379C         502.40     0          0          0          0
23G3388C         503.70     0          0          0          0
23G3389C         503.38     0          0          0          0
23G3390C         505.00     0          0          0          0
23G3391C         503.00     0          0          0          0
24F1225C         500.00     0          0          0          0
24F1226C         498.00     0          0          0          0
24F1235C         494.00     0          0          0          0
24F1239C         551.20     0          0          0          0
24F1248C         546.69     0          0          0          0
24F1250C         549.60     0          0          0          0
24F1254C         550.69     0          0          0          0
24F1255C         550.69     0          0          0          0
24F1313C         505.54     0          0          0          0
24F1340C         508.00     0          0          0          0
24F1350C         505.00     0          0          0          0
24F1352C         501.00     0          0          0          0
24F1356C         496.79     0          0          0          0
24F1389C         488.00     0          0          0          0
24F1389CA        488.00     0          0          0          0
24F1390C         488.00     0          0          0          0
24F1392C         490.67     0          0          0          0
24F1394C         494.00     0          0          0          0
24F1395C         492.00     0          0          0          0
24F4024C         486.50     0          0          0          0
24F4024CA        0          0          0          0          0
24F4025C         486.10     0          0          0          0
24F4027C         486.00     0          0          0          0
24F4035C         0          0          0          0          0
24F4036C         490.00     0          0          0          0
24F4038C         493.00     0          0          0          0
24F4038CA        493.00     0          0          0          0
24F4039C         494.00     0          0          0          0
24F4041C         0          0          0          0          0
24F4044C         0          0          0          0          0
24F4045C         0          0          0          0          0
24F4047C         0          0          0          0          0
24F4352C         501.00     0          0          0          0
24F4352CA        501.00     0          0          0          0
24F4357C         500.70     0          0          0          0
24F4358C         497.70     0          0          0          0
24F4365C         493.70     0          0          0          0
24F4366C         494.00     0          0          0          0
24F4367C         493.50     0          0          0          0
24F4368C         493.50     0          0          0          0
24F4368CA        493.50     0          0          0          0
24F4369C         493.00     0          0          0          0
24F4377C         493.79     0          0          0          0
24F4377CA        493.79     0          0          0          0
24F4385C         500.38     0          0          0          0
24F4385CA        500.38     0          0          0          0
24F4397C         497.75     0          0          0          0
24F4397CA        497.75     0          0          0          0
24F4398C         497.46     0          0          0          0
24F4402C         494.62     0          0          0          0
24F4404C         493.77     0          0          0          0
24F4405C         490.16     0          0          0          0
24F4406C         487.00     0          0          0          0
24F4406CA        487.00     0          0          0          0
24F4418C         490.00     0          0          0          0
24F4421C         494.50     0          0          0          0
24F4422C         495.00     0          0          0          0
24F4423C         494.00     0          0          0          0
24F4428C         496.00     0          0          0          0
24F4430C         496.20     0          0          0          0
24F4431C         492.50     0          0          0          0
24F4431CA        492.50     0          0          0          0
24F4432C         493.00     0          0          0          0
24F4435C         491.00     0          0          0          0
24F4436C         494.00     0          0          0          0
24F4439C         489.24     0          0          0          0
24F4444C         489.20     0          0          0          0
24F4445C         489.20     0          0          0          0
24F4448C         489.20     0          0          0          0
24F4451C         489.20     0          0          0          0
24F4452C         489.20     0          0          0          0
24F4453C         489.00     0          0          0          0
24F4453CA        489.00     0          0          0          0
24F4454C         488.00     0          0          0          0
24F4506C         495.21     0          0          0          0
24F4532C         486.00     0          0          0          0
24G2101C         497.06     0          0          0          0
24G2103C         510.69     0          0          0          0
24G2126C         525.59     0          0          0          0
24G2135C         523.99     0          0          0          0
24G2137C         521.69     0          0          0          0
24G2143C         492.00     0          0          0          0
24G2167C         501.85     0          0          0          0
24G2168C         500.00     0          0          0          0
24G2169C         497.92     0          0          0          0
24G2257C         518.19     0          0          0          0
24G2260C         513.48     0          0          0          0
24G2272C         491.50     0          0          0          0
24G2272CA        491.50     0          0          0          0
24G2273C         493.40     0          0          0          0
24G2274C         492.00     0          0          0          0
24G2275C         493.00     0          0          0          0
24G2276C         495.43     0          0          0          0
24G2302C         487.47     0          0          0          0
24G2305C         488.00     0          0          0          0
24G2308C         488.00     0          0          0          0
24G2309C         488.03     0          0          0          0
24G2311C         487.95     0          0          0          0
24G2312C         490.55     0          0          0          0
24G2316C         489.20     0          0          0          0
24G2322C         486.00     0          0          0          0
24G2323C         486.00     0          0          0          0
24G2323CA        486.00     0          0          0          0
24G2326C         487.69     0          0          0          0
24G2328C         486.00     0          0          0          0
24G2426C         490.00     0          0          0          0
24G2434C         492.35     0          0          0          0
24G2437C         507.00     0          0          0          0
24G3184C         498.30     0          0          0          0
24G3184CA        498.30     0          0          0          0
24G3187C         482.50     0          0          0          0
24G3188C         485.00     0          0          0          0
24G3200C         486.70     0          0          0          0
24G3200CA        486.70     0          0          0          0
24G3203C         485.00     0          0          0          0
24G3211C         0          0          0          0          0
24G3215C         0          0          0          0          0
24G3216C         0          0          0          0          0
24G3242C         483.00     0          0          0          0
24G3243C         488.50     0          0          0          0
24G3249C         486.50     0          0          0          0
24G3250C         487.00     0          0          0          0
24G3286C         484.00     0          0          0          0
24G3286CA        484.00     0          0          0          0
24G3288C         484.00     0          0          0          0
24G3289C         483.10     0          0          0          0
24G3290C         480.00     0          0          0          0
24G3301C         480.00     0          0          0          0
24G3301CA        480.00     0          0          0          0
24G3311C         477.70     0          0          0          0
24G3315C         478.60     0          0          0          0
24G3316C         478.20     0          0          0          0
24G3319C         479.95     0          0          0          0
24G3326C         483.10     0          0          0          0
24G3328C         481.50     0          0          0          0
24G3358C         486.30     0          0          0          0
24G3359C         485.89     0          0          0          0
24G3359CA        485.89     0          0          0          0
24G3360C         0          0          0          0          0
25G2006C         486.95     0          0          0          0
25G2007C         491.58     0          0          0          0
25G2008C         480.18     0          0          0          0
25G2009C         478.58     0          0          0          0
25G2013C         485.29     0          0          0          0
25G2017C         468.00     0          0          0          0
25G2018C         468.00     0          0          0          0
25G2107C         471.00     0          0          0          0
25G2108C         472.00     0          0          0          0
25G2108CA        472.00     0          0          0          0
25G2110C         475.00     0          0          0          0
25G2111C         472.00     0          0          0          0
25G2112C         472.00     0          0          0          0
25G2113C         478.90     0          0          0          0
25G2114C         477.00     0          0          0          0
25G2121C         477.00     0          0          0          0
25G2121CA        477.00     0          0          0          0
25G2135C         477.40     0          0          0          0
25G2137C         478.20     0          0          0          0
25G2167C         479.00     0          0          0          0
25G3200C         476.69     0          0          0          0
25G3206C         477.00     0          0          0          0
25G3207C         475.00     0          0          0          0
25G3208C         471.19     0          0          0          0
25G3213C         472.00     0          0          0          0
25G3229C         470.00     0          0          0          0
25G3231C         469.50     0          0          0          0
25G3232C         469.00     0          0          0          0
25G3233C         468.39     0          0          0          0
25G3234C         469.00     0          0          0          0
25G3246C         471.20     0          0          0          0
25G3253C         471.30     0          0          0          0
25G3254C         471.00     0          0          0          0
25G3257C         471.69     0          0          0          0
25G3271C         463.19     0          0          0          0
25G3276C         458.00     0          0          0          0
25G3277C         466.00     0          0          0          0
25G3289C         470.30     0          0          0          0
25G3290C         459.00     0          0          0          0
25G3291C         469.30     0          0          0          0
25G3334C         470.00     0          0          0          0
25G3364C         472.00     0          0          0          0
25G3426C         457.00     0          0          0          0
25G3458C         460.00     0          0          0          0
25G3459C         460.00     0          0          0          0
25G3467C         457.00     0          0          0          0
25G3468C         458.00     0          0          0          0
26G1198C         467.00     0          0          0          0
26G1199C         454.60     0          0          0          0
26G1203C         457.66     0          0          0          0
26G1204C         457.00     0          0          0          0
26G1205C         457.00     0          0          0          0
26G1218C         457.00     0          0          0          0
26G2006C         455.30     0          0          0          0
26G2007C         456.10     0          0          0          0
26G2073C         480.00     0          0          0          0
26G2092C         478.50     0          0          0          0
26G2094C         479.00     0          0          0          0
26G2104C         477.80     0          0          0          0
26G2107C         477.50     0          0          0          0
26G2109C         478.00     0          0          0          0
26G2111C         476.75     0          0          0          0
26G2118C         476.00     0          0          0          0
26G2317C         482.00     0          0          0          0
26G2345C         474.00     0          0          0          0
26G2346C         474.00     0          0          0          0
26G2428C         464.90     0          0          0          0
26G2480C         460.90     0          0          0          0
26G2485C         465.25     0          0          0          0
26G2488C         463.30     0          0          0          0
26G2494C         464.90     0          0          0          0
26G2495C         465.00     0          0          0          0
26G2500C         469.50     0          0          0          0
26G2504C         465.00     0          0          0          0
26G2514C         469.00     0          0          0          0
26G2517C         465.35     0          0          0          0
26G2519C         468.00     0          0          0          0
26G2520C         467.70     0          0          0          0
26G2524C         472.00     0          0          0          0
26G2526C         472.00     0          0          0          0
26G2540C         472.10     0          0          0          0
26G2545C         478.00     0          0          0          0
26G2548C         479.00     0          0          0          0
26G2553C         479.00     0          0          0          0
26G2560C         479.00     0          0          0          0
26G2561C         479.00     0          0          0          0
26G2592C         458.00     0          0          0          0
26G2593C         458.00     0          0          0          0
26G2595C         458.00     0          0          0          0
26G2602C         460.00     0          0          0          0
26G2605C         479.00     0          0          0          0
26G2606C         463.20     0          0          0          0
26G3008C         481.00     0          0          0          0
26G3182C         482.70     0          0          0          0
HDWALL           458.00     0          0          0          0
JUNCT            505.00     0          0          0          0
KOELN            463.19     0          0          0          0
MCINTCPT         460.80     0          0          0          0
PARK1            469.00     0          0          0          0
PARK2            469.00     0          0          0          0
TRANS            458.00     0          0          0          0
RDP              500.00     0          0          0          0
A3               451.00     0          0          0          0
A2               446.00     0          0          0          0
DS1              445.00     0          0          0          0
A33              461.00     0          0          0          0
G2               448.00     0          0          0          0
A32              497.00     0          0          0          0
A31              453.00     0          0          0          0
DS2              445.50     0          0          0          0
C12              442.00     0          0          0          0
C11              444.00     0          0          0          0
C1               444.00     0          0          0          0
B1               455.00     0          0          0          0
US72             445.00     0          0          0          0
DROPUS           468.00     0          0          0          0
72@TUNL          445.00     0          0          0          0
806              468.00     0          0          0          0

[STORAGE]
;;Name           Elev       MaxDepth   InitDepth  Shape      Curve/Params
;;-------------- ---------- ---------- ---------- ---------- ----------
23G2175C         509.98     0          0          FUNCTIONAL 0 0          0
24G3364C         479.90     0          0          FUNCTIONAL 0 0          0
DEWEYSTO         482.00     0          0          FUNCTIONAL 0 0          0
GRANDBTS         487.00     0          0          FUNCTIONAL 0 0          0
PARKST           470.00     0          0          FUNCTIONAL 0 0          0
PHILIP           515.19     0          0          FUNCTIONAL 0 0          0

[CONDUITS]
;;Name           From             To               Length     Roughness  InOffset   OutOffset  InitFlow   MaxFlow
;;-------------- ---------------- ---------------- ---------- ---------- ---------- ---------- ---------- ----------
G26G1203C        26G1203C         26G1198C         43.60      0.0150     390.50     390.50     0          0
G26G1199C        26G1199C         26G1203C         380.41     0.0150     390.20     390.50     0          0
G26G1204C        26G1204C         26G1199C         61.00      0.0150     390.34     390.20     0          0
G26G1205C        26G1205C         26G1204C         17.00      0.0150     390.38     390.34     0          0
G26G2007C        26G2007C         26G1205C         480.00     0.0150     391.50     390.38     0          0
GTRANS           TRANS            26G2007C         17.00      0.0150     391.61     391.50     0          0
GHDWALL          HDWALL           TRANS            13.00      0.0150     391.70     391.61     0          0
G26G2595C        26G2595C         HDWALL           185.00     0.0150     392.95     391.70     0          0
G26G2593C        26G2593C         26G2595C         30.61      0.0150     393.16     392.95     0          0
G26G2592C        26G2592C         26G2593C         32.80      0.0150     393.38     393.16     0          0
G25G3276C        25G3276C         26G2592C         278.99     0.0150     395.26     393.38     0          0
G25G3277C        25G3277C         25G3276C         49.04      0.0150     395.60     395.26     0          0
G26G2480C        26G2480C         KOELN            166.00     0.0150     396.50     396.05     0          0
G26G2602C        26G2602C         26G2480C         11.04      0.0150     396.53     396.50     0          0
G25G3291C        25G3291C         26G2602C         333.00     0.0150     397.50     396.53     0          0
G25G3289C        25G3289C         25G3291C         340.96     0.0150     398.40     397.50     0          0
G25G3290C        25G3290C         25G3289C         200.17     0.0150     398.90     398.40     0          0
G25G3458C        25G3458C         25G3290C         20.24      0.0150     398.93     398.90     0          0
G25G3459C        25G3459C         25G3458C         254.71     0.0150     399.33     398.93     0          0
GMCINTCPT        MCINTCPT         25G3459C         165.00     0.0150     399.60     399.33     0          0
G25G3426C        25G3426C         MCINTCPT         527.00     0.0150     401.41     399.60     0          0
G25G3467C        25G3467C         25G3426C         88.61      0.0150     401.72     401.41     0          0
G25G3468C        25G3468C         25G3467C         12.04      0.0150     401.76     401.72     0          0
G25G3364C        25G3364C         25G3468C         619.00     0.0150     403.90     401.76     0          0
G25G3334C        25G3334C         25G3364C         71.47      0.0150     404.12     403.90     0          0
G25G2018C        25G2018C         PARK1            515.00     0.0150     410.12     408.49     0          0
G25G2017C        25G2017C         25G2018C         56.00      0.0150     410.30     410.12     0          0
G25G2107C        25G2107C         25G2017C         270.31     0.0160     411.16     410.30     0          0
G25G2108C        25G2108C         25G2107C         48.04      0.0160     411.31     411.16     0          0
G25G2121C        25G2121C         25G2108C         400.05     0.0160     412.60     411.31     0          0
G24G3301C        24G3301C         25G2121C         1089.00    0.0160     415.82     412.60     0          0
G24G3290C        24G3290C         24G3301C         26.00      0.0160     415.90     415.82     0          0
G24G3289C        24G3289C         24G3290C         562.00     0.0160     417.60     415.90     0          0
G24G3288C        24G3288C         24G3289C         101.01     0.0160     418.01     417.60     0          0
G24G3286C        24G3286C         24G3288C         30.36      0.0160     418.13     418.01     0          0
G24G3359C        24G3359C         24G3286C         396.64     0.0160     422.00     418.13     0          0
G24G3200C        24G3200C         24G3359C         613.35     0.0160     421.97     422.00     0          0
G24G3203C        24G3203C         24G3200C         17.72      0.0160     422.04     421.97     0          0
G24G3188C        24G3188C         24G3203C         258.93     0.0160     423.20     422.04     0          0
G24G3187C        24G3187C         24G3188C         84.38      0.0160     425.17     423.20     0          0
G24G2323C        24G2323C         24G3187C         373.34     0.0160     426.60     425.17     0          0
G24G2322C        24G2322C         24G2323C         27.20      0.0160     426.59     426.60     0          0
G24G2328C        24G2328C         24G2322C         249.95     0.0160     426.55     426.59     0          0
G24F1389C        24F1389C         24G2328C         330.05     0.0160     431.10     426.55     0          0
G24F1390C        24F1390C         24F1389C         30.80      0.0150     431.14     431.10     0          0
G24G2309C        24G2309C         24F1390C         125.87     0.0150     431.35     431.14     0          0
G24G2308C        24G2308C         24G2309C         94.03      0.0150     431.86     431.35     0          0
G24G2305C        24G2305C         24G2308C         43.04      0.0150     432.10     431.86     0          0
G24G2311C        24G2311C         24G2305C         174.15     0.0150     432.35     432.10     0          0
G24G2426C        24G2426C         24G2311C         56.08      0.0150     432.45     432.35     0          0
G24G2312C        24G2312C         24G2426C         414.67     0.0150     433.25     432.45     0          0
G24G2313C        24G2272C         24G2312C         361.00     0.0100     434.10     433.25     0          0
G24G2274C        24G2274C         24G2272C         69.42      0.0150     434.16     434.10     0          0
G24G2275C        24G2275C         24G2274C         25.96      0.0150     434.18     434.16     0          0
G24G2273C        24G2273C         24G2275C         14.14      0.0150     434.20     434.18     0          0
G24G2276C        24G2276C         24G2273C         124.95     0.0150     434.60     434.20     0          0
G23G3064C        23G3064C         24G2276C         353.20     0.0150     435.17     434.60     0          0