;; SWMM5 .inp converted from XPSWMM .xp file
;; Generated by XPSWMM Card Reader
;; Source format: XP_CARD | Original title: (none)

[TITLE]
;;Project Title/Notes
Converted from XPSWMM .xp file

[OPTIONS]
FLOW_UNITS           CFS
INFILTRATION         HORTON
FLOW_ROUTING         DYNWAVE
LINK_OFFSETS         DEPTH
MIN_SLOPE            0.0
ALLOW_PONDING        NO
SKIP_STEADY_STATE    NO
ROUTING_STEP         00:00:05
VARIABLE_STEP        0.75
INERTIAL_DAMPING     PARTIAL
NORMAL_FLOW_LIMITED  BOTH
MAX_TRIALS           50
HEAD_TOLERANCE       0.0033

[JUNCTIONS]
;;Name           Elev       MaxDepth   InitDepth  SurDepth   Aponded
;;-------------- ---------- ---------- ---------- ---------- ----------
48009016         851.94     0          0          0          0
48010007         852.00     0          0          0          0
48010016         860.32     0          0          0          0
48010009         851.46     0          0          0          0
48010014         854.97     0          0          0          0
48010013         856.35     0          0          0          0
48010008         855.32     0          0          0          0
48010012         864.25     0          0          0          0
48010005         860.30     0          0          0          0
48010006         858.83     0          0          0          0
48010011         854.34     0          0          0          0
48010017         856.06     0          0          0          0
48010018         853.40     0          0          0          0
48009009         865.05     0          0          0          0
48009010         864.07     0          0          0          0
48010010         861.02     0          0          0          0
48010001         861.71     0          0          0          0
48010002         862.57     0          0          0          0
48010003         864.25     0          0          0          0
48010004         866.96     0          0          0          0
48007020         860.85     0          0          0          0
48008012         866.08     0          0          0          0
48007013         865.41     0          0          0          0
48007011         866.50     0          0          0          0
48007012         867.94     0          0          0          0
48008011         868.71     0          0          0          0
48007010         866.94     0          0          0          0
48007014         867.68     0          0          0          0
48007015         871.66     0          0          0          0
48007016         876.73     0          0          0          0
48008010         869.19     0          0          0          0
48007019         870.59     0          0          0          0
48007008         867.67     0          0          0          0
48007009         867.58     0          0          0          0
48008009         870.72     0          0          0          0
48007003         871.80     0          0          0          0
48008002         870.49     0          0          0          0
48007004         869.46     0          0          0          0
48007018         872.73     0          0          0          0
48007005         871.03     0          0          0          0
48007006         872.82     0          0          0          0
48007007         874.86     0          0          0          0
48007017         875.61     0          0          0          0
44915014         795.79     0          0          0          0
44915012         820.40     0          0          0          0
44915013         808.46     0          0          0          0
44914006         813.80     0          0          0          0
44914007         823.39     0          0          0          0
44914008         833.37     0          0          0          0
44914005         812.72     0          0          0          0
44914002         810.86     0          0          0          0
44913001         841.50     0          0          0          0
44913002         843.89     0          0          0          0
44915010         830.01     0          0          0          0
44913003         845.03     0          0          0          0
44913006         858.75     0          0          0          0
44913004         847.80     0          0          0          0
44915011         821.96     0          0          0          0
44914001         816.00     0          0          0          0
44913005         850.47     0          0          0          0
48016001         859.90     0          0          0          0
44914003         817.22     0          0          0          0
48016002         855.33     0          0          0          0
44914004         824.53     0          0          0          0
48009015         850.50     0          0          0          0
44911032         831.57     0          0          0          0
44910005         834.98     0          0          0          0
44911033         836.72     0          0          0          0
44910006         837.53     0          0          0          0
44910004         835.52     0          0          0          0
44911036         840.22     0          0          0          0
44912018         840.50     0          0          0          0
44912019         843.37     0          0          0          0
44912020         844.04     0          0          0          0
44910010         826.96     0          0          0          0
44911031         828.79     0          0          0          0
44911010         824.25     0          0          0          0
44912021         844.60     0          0          0          0
44912022         848.06     0          0          0          0
44912025         847.93     0          0          0          0
44911030         834.14     0          0          0          0
44912014         837.00     0          0          0          0
48009011         853.48     0          0          0          0
44911009         820.47     0          0          0          0
44912015         835.16     0          0          0          0
44910003         835.07     0          0          0          0
44912016         835.50     0          0          0          0
48009012         857.50     0          0          0          0
44911021         814.57     0          0          0          0
44912017         835.46     0          0          0          0
48009013         858.69     0          0          0          0
44911020         822.00     0          0          0          0
44911004         838.76     0          0          0          0
44911029         826.40     0          0          0          0
44911028         825.41     0          0          0          0
44911008         830.48     0          0          0          0
44910009         837.07     0          0          0          0
48009014         859.54     0          0          0          0
44912007         828.76     0          0          0          0
44911024         823.30     0          0          0          0
44912008         830.94     0          0          0          0
44911027         825.33     0          0          0          0
44911003         840.25     0          0          0          0
44911035         822.00     0          0          0          0
44912009         833.05     0          0          0          0
44911007         832.57     0          0          0          0
44912010         834.89     0          0          0          0
44911013         836.41     0          0          0          0
44911026         825.80     0          0          0          0
48009005         858.56     0          0          0          0
44911037         826.42     0          0          0          0
44911015         830.83     0          0          0          0
44912024         844.82     0          0          0          0
44911019         825.76     0          0          0          0
44912011         836.59     0          0          0          0
48009007         846.59     0          0          0          0
44911006         839.68     0          0          0          0
44910002         837.37     0          0          0          0
48009006         853.30     0          0          0          0
44912005         828.98     0          0          0          0
44910008         839.39     0          0          0          0
48009004         859.32     0          0          0          0
44911018         830.04     0          0          0          0
44911023         834.65     0          0          0          0
48009008         865.63     0          0          0          0
44912004         836.24     0          0          0          0
44911002         842.88     0          0          0          0
44912012         837.53     0          0          0          0
44911012         843.68     0          0          0          0
44911017         835.21     0          0          0          0
44912002         841.29     0          0          0          0
44911014         841.62     0          0          0          0
44911022         840.65     0          0          0          0
44911005         844.03     0          0          0          0
44912023         843.11     0          0          0          0
44912006         839.89     0          0          0          0
44912013         834.53     0          0          0          0
44910014         843.26     0          0          0          0
48009001         845.08     0          0          0          0
44910001         833.69     0          0          0          0
48009003         857.72     0          0          0          0
48009002         850.28     0          0          0          0
44911001         844.58     0          0          0          0
44912003         838.07     0          0          0          0
44911011         844.52     0          0          0          0
44912001         844.33     0          0          0          0
44911016         844.34     0          0          0          0
44911034         845.62     0          0          0          0
44906023         846.36     0          0          0          0
44905011         841.01     0          0          0          0
44905015         835.97     0          0          0          0
44905006         841.26     0          0          0          0
44906017         840.51     0          0          0          0
44906016         839.48     0          0          0          0
44907003         827.68     0          0          0          0
48008013         856.13     0          0          0          0
44907016         841.06     0          0          0          0
44907007         831.07     0          0          0          0
44906018         842.19     0          0          0          0
44905019         839.34     0          0          0          0
48008014         873.56     0          0          0          0
44906015         838.87     0          0          0          0
44906019         842.31     0          0          0          0
44906029         848.59     0          0          0          0
44907015         838.87     0          0          0          0
44906027         847.98     0          0          0          0
48008008         845.64     0          0          0          0
48008015         871.56     0          0          0          0
44906020         845.19     0          0          0          0
44906024         849.16     0          0          0          0
44906028         846.38     0          0          0          0
44907008         829.87     0          0          0          0
48008007         849.77     0          0          0          0
44907014         835.25     0          0          0          0
44906021         847.89     0          0          0          0
44905004         843.97     0          0          0          0
44905005         844.72     0          0          0          0
44907006         830.16     0          0          0          0
44906022         849.19     0          0          0          0
44907013         832.78     0          0          0          0
44905009         842.61     0          0          0          0
44905010         842.82     0          0          0          0
44907011         835.09     0          0          0          0
44907012         831.82     0          0          0          0
44906011         834.55     0          0          0          0
44905014         840.45     0          0          0          0
44905020         840.45     0          0          0          0
44906012         840.91     0          0          0          0
44905018         842.71     0          0          0          0
44906013         846.00     0          0          0          0
48008006         844.72     0          0          0          0
44905003         849.57     0          0          0          0
44906014         850.42     0          0          0          0
44907010         832.31     0          0          0          0
44907002         832.54     0          0          0          0
44906026         849.19     0          0          0          0
48008005         853.05     0          0          0          0
44906007         841.30     0          0          0          0
44907005         833.25     0          0          0          0
48008004         867.52     0          0          0          0
44906008         844.40     0          0          0          0
44905008         849.78     0          0          0          0
48008003         871.94     0          0          0          0
44906009         849.37     0          0          0          0
44906010         849.36     0          0          0          0
44905013         844.91     0          0          0          0
44906025         850.42     0          0          0          0
44905017         846.18     0          0          0          0
44905002         852.99     0          0          0          0
44905007         851.31     0          0          0          0
44907001         834.48     0          0          0          0
44907009         839.91     0          0          0          0
44905012         846.94     0          0          0          0
44906001         847.89     0          0          0          0
44907004         837.32     0          0          0          0
44906002         850.93     0          0          0          0
44906003         852.79     0          0          0          0
44906004         852.56     0          0          0          0
44906005         852.50     0          0          0          0
44906006         853.95     0          0          0          0
44905001         855.97     0          0          0          0
44904019         853.30     0          0          0          0
44904014         850.49     0          0          0          0
44904015         852.97     0          0          0          0
44902005         836.25     0          0          0          0
44904016         853.97     0          0          0          0
44902012         846.32     0          0          0          0
44904018         856.25     0          0          0          0
44902008         838.87     0          0          0          0
44903013         852.02     0          0          0          0
44904020         855.33     0          0          0          0
44903014         858.15     0          0          0          0
48001006         853.62     0          0          0          0
48001007         855.20     0          0          0          0
44904017         857.57     0          0          0          0
44903018         861.63     0          0          0          0
44904008         858.68     0          0          0          0
44904021         856.44     0          0          0          0
44904009         857.70     0          0          0          0
44902003         840.00     0          0          0          0
44904010         858.82     0          0          0          0
44902004         837.61     0          0          0          0
44904011         858.86     0          0          0          0
44902006         838.22     0          0          0          0
44902007         839.12     0          0          0          0
44904012         859.03     0          0          0          0
44902011         840.77     0          0          0          0
44904013         858.02     0          0          0          0
44903004         857.06     0          0          0          0
48001004         858.57     0          0          0          0
44903005         867.59     0          0          0          0
48001005         865.32     0          0          0          0
44902010         840.71     0          0          0          0
44904006         865.04     0          0          0          0
44904007         862.76     0          0          0          0
48001001         862.31     0          0          0          0
48001002         865.21     0          0          0          0
45015018         842.50     0          0          0          0
45015017         845.40     0          0          0          0
45015016         843.49     0          0          0          0
45015015         843.49     0          0          0          0
45014006         850.33     0          0          0          0
45014007         860.24     0          0          0          0
45013022         868.46     0          0          0          0
45014008         867.34     0          0          0          0
45013023         867.04     0          0          0          0
45015014         846.74     0          0          0          0
47916014         865.93     0          0          0          0
45015019         847.00     0          0          0          0
45015013         846.13     0          0          0          0
45014004         853.53     0          0          0          0
45014005         860.45     0          0          0          0
sso-1023         841.00     0          0          0          0
sso-602          840.45     0          0          0          0
sso-601          839.34     0          0          0          0
sso-600          843.11     0          0          0          0
sso-607          856.44     0          0          0          0

[CONDUITS]
;;Name           From             To               Length     Roughness  InOffset   OutOffset  InitFlow   MaxFlow
;;-------------- ---------------- ---------------- ---------- ---------- ---------- ---------- ---------- ----------
DP1              48010007         48009016         300.36     0.0130     844.00     842.94     0          0
DP2              48010009         48010007         353.71     0.0130     845.46     844.00     0          0
DP3              48010016         48010013         124.47     0.0130     848.32     847.35     0          0
DP4              48010013         48010014         84.20      0.0130     847.35     846.97     0          0
DP5              48010014         48010009         367.65     0.0130     846.97     845.46     0          0
DP6              48010008         48010009         197.47     0.0130     847.32     845.46     0          0
DP7              48010012         48010013         140.42     0.0130     855.25     852.02     0          0
DP8              48009010         48010005         273.72     0.0130     852.07     850.30     0          0
DP9              48010011         48010006         387.55     0.0130     844.34     842.83     0          0
DP10             48010006         48010005         384.27     0.0130     842.83     841.30     0          0
DP11             48010010         48010011         188.67     0.0130     852.02     849.54     0          0
DP12             48010018         48010017         205.44     0.0130     845.40     845.06     0          0
DP13             48010017         48010011         237.88     0.0130     845.06     844.34     0          0
DP14             48007020         48010018         380.17     0.0130     853.85     845.81     0          0
DP15             48010003         48010010         224.47     0.0130     855.25     852.02     0          0
DP16             48010001         48009010         273.56     0.0130     853.71     852.07     0          0
DP17             48010002         48010001         289.80     0.0130     855.57     853.71     0          0
DP18             48010004         48007020         397.11     0.0130     859.96     853.85     0          0
DP19             48007013         48008012         200.57     0.0130     858.41     857.08     0          0
DP20             48008011         48008012         204.59     0.0130     859.71     857.08     0          0
DP21             48007010         48007011         214.80     0.0130     857.94     856.50     0          0
DP22             48007012         48007013         199.82     0.0130     859.94     858.41     0          0
DP23             48007014         48007010         20.27      0.0130     859.68     857.94     0          0
DP24             48007015         48007014         229.03     0.0130     862.66     859.68     0          0
DP25             48007016         48007015         253.00     0.0130     868.73     862.66     0          0
DP26             48007016         48007019         283.92     0.0130     868.73     863.54     0          0
DP27             48008010         48008011         101.30     0.0130     860.19     859.71     0          0
DP28             48007018         48007019         241.99     0.0130     864.73     862.59     0          0
DP29             48007008         48008010         220.19     0.0130     861.67     860.46     0          0
DP30             48007009         48007010         196.16     0.0130     858.58     857.94     0          0
DP31             48008009         48008010         184.66     0.0130     861.72     860.19     0          0
DP32             48008012         48009010         324.91     0.0130     857.08     854.63     0          0
DP33             48007011         48010003         202.13     0.0130     856.50     855.25     0          0
DP34             48007019         48007020         376.96     0.0130     862.59     853.85     0          0
DP35             48007003         48007009         213.76     0.0130     860.61     858.58     0          0
DP36             48007004         48007003         25.44      0.0130     860.46     860.61     0          0
DP37             48007005         48007004         277.29     0.0130     862.03     860.46     0          0
DP38             48007006         48007005         298.88     0.0130     863.82     862.03     0          0
DP39             48007007         48007006         312.82     0.0130     865.86     863.82     0          0
DP40             48007017         48007018         278.42     0.0130     867.61     864.73     0          0
DP41             45014005         45014004         183.11     0.0130     854.45     846.53     0          0
DP42             45014004         45015013         220.53     0.0130     846.53     839.13     0          0
DP43             45015013         45015014         167.87     0.0130     839.13     838.74     0          0
DP44             45015019         45015013         135.26     0.0130     840.39     839.13     0          0
DP45             44915010         44915011         306.17     0.0130     819.01     810.96     0          0
DP46             44910005         44910004         39.83      0.0130     828.98     828.52     0          0
DP47             44910006         44910004         158.84     0.0130     829.53     828.52     0          0
DP48             44910004         44910003         253.30     0.0130     828.52     827.07     0          0
DP49             44910003         44910002         279.05     0.0130     827.07     825.37     0          0
DP50             44910002         44910001         273.78     0.0130     825.37     823.69     0          0
DP51             44907002         44907003         320.85     0.0130     823.54     821.68     0          0
DP52             44907003         44907007         306.24     0.0130     821.68     821.07     0          0
DP53             44907007         44907008         159.31     0.0130     821.07     820.87     0          0
DP54             44907005         44907006         263.19     0.0130     823.25     821.16     0          0
DP55             44907010         44907011         130.83     0.0130     822.31     821.07     0          0
DP56             44910001         44907003         273.46     0.0130     823.69     821.68     0          0
DP57             44915012         44915013         270.64     0.0130     813.40     791.51     0          0
DP58             44914005         44915013         190.75     0.0130     792.72     790.46     0          0
DP59             44915013         44915014         200.62     0.0130     790.46     788.79     0          0
DP60             44914006         44915013         129.75     0.0130     803.80     791.46     0          0
DP61             44914002         44914005         183.94     0.0130     795.86     792.72     0          0
DP62             44914001         44914002         132.84     0.0130     796.62     795.86     0          0
DP63             44915011         44914001         213.42     0.0130     810.96     807.02     0          0
DP64             44914003         44914001         177.97     0.0130     798.22     796.62     0          0
DP65             44910010         44915011         231.96     0.0130     815.96     810.96     0          0
DP66             44911004         44911003         106.44     0.0130     830.76     829.25     0          0
DP67             44911002         44911003         240.42     0.0130     832.88     829.25     0          0
DP68             44911001         44911002         247.33     0.0130     835.58     832.88     0          0
DP69             44907016         44906016         110.45     0.0130     819.06     818.48     0          0
DP70             44906015         44906016         59.50      0.0130     829.23     827.87     0          0
DP71             44907013         44907016         151.69     0.0130     819.78     819.06     0          0
DP72             44907015         44906015         70.82      0.0130     828.87     827.87     0          0
DP73             44907006         44907008         50.04      0.0130     821.16     820.87     0          0
DP74             44907008         44907014         178.81     0.0130     820.87     820.29     0          0
DP75             44907014         44907011         64.04      0.0130     820.29     820.09     0          0
DP76             44907011         44907012         28.62      0.0130     820.09     819.82     0          0
DP77             44907012         44907013         17.12      0.0130     819.82     819.78     0          0
DP78             44911001         44906016         194.89     0.0130     835.58     829.23     0          0
DP79             44906013         44906012         325.62     0.0130     826.66     825.91     0          0
DP80             44906012         44906011         291.74     0.0130     825.91     825.55     0          0
DP81             44914008         44914007         302.96     0.0130     822.37     814.39     0          0
DP82             44911032         44914004         353.13     0.0130     822.57     815.53     0          0
DP83             44911009         44911010         194.88     0.0130     804.47     802.25     0          0
DP84             44911012         44911013         247.95     0.0130     833.68     825.41     0          0
DP85             44911013         44911015         261.90     0.0130     825.41     819.83     0          0
DP86             44911015         44911019         227.04     0.0130     819.83     813.76     0          0
DP87             44911011         44911012         249.26     0.0130     835.52     833.68     0          0
DP88             44911034         44911014         252.13     0.0130     835.62     832.62     0          0
DP89             44911014         44911015         248.77     0.0130     832.62     819.83     0          0
DP90             44911021         44911009         163.16     0.0130     807.57     804.67     0          0
DP91             44906021         44906020         256.87     0.0130     836.39     833.19     0          0
DP92             44906019         44906018         148.95     0.0130     831.31     830.19     0          0
DP93             44906011         44907013         325.30     0.0130     825.55     824.38     0          0
DP94             44914007         44914006         290.72     0.0130     814.39     803.80     0          0
DP95             44914004         44914003         301.48     0.0130     815.53     798.42     0          0
DP96             44911010         44914003         296.82     0.0130     802.25     798.22     0          0
DP97             44911003         44911013         262.74     0.0130     829.25     825.41     0          0
DP98             44911011         44906019         214.34     0.0130     835.52     831.31     0          0
DP99             44911034         44906020         211.63     0.0130     835.62     833.19     0          0
DP100            44906020         44906019         266.65     0.0130     833.19     831.31     0          0
DP101            44906016         44906017         17.83      0.0130     818.48     818.51     0          0
DP102            44911006         44911007         244.28     0.0130     815.68     814.57     0          0
DP103            44911007         44911008         72.66      0.0130     814.57     810.48     0          0
DP104            44911008         44911009         112.92     0.0130     810.48     804.47     0          0
DP105            44907001         44907002         318.69     0.0130     825.48     823.54     0          0
DP106            44907004         44907005         310.24     0.0130     825.32     823.25     0          0
DP107            44902005         44907001         319.55     0.0130     827.52     825.48     0          0