;; SWMM5 .inp converted from XPSWMM .xp file
;; Generated by XPSWMM Card Reader
;; Source format: XP_CARD | Original title: (none)

[TITLE]
;;Project Title/Notes
Converted from XPSWMM .xp file

[OPTIONS]
FLOW_UNITS           CFS
INFILTRATION         HORTON
FLOW_ROUTING         DYNWAVE
LINK_OFFSETS         DEPTH
MIN_SLOPE            0.0
ALLOW_PONDING        NO
SKIP_STEADY_STATE    NO
ROUTING_STEP         00:00:05
VARIABLE_STEP        0.75
INERTIAL_DAMPING     PARTIAL
NORMAL_FLOW_LIMITED  BOTH
MAX_TRIALS           50

[JUNCTIONS]
;;Name           Elev       MaxDepth   InitDepth  SurDepth   Aponded
;;-------------- ---------- ---------- ---------- ---------- ----------
0                56.10      0          0          0          0
0                53.80      0          0          0          0
0                53.80      0          0          0          0
0                60.00      0          0          0          0
0                60.00      0          0          0          0
0                60.00      0          0          0          0
0                60.00      0          0          0          0
0                60.00      0          0          0          0
0                60.00      0          0          0          0
0                60.00      0          0          0          0
0                60.00      0          0          0          0
0                60.00      0          0          0          0
0                60.00      0          0          0          0
0                60.00      0          0          0          0
0                60.00      0          0          0          0
0                60.00      0          0          0          0
0                60.00      0          0          0          0
0                60.00      0          0          0          0
0                60.00      0          0          0          0
0                60.00      0          0          0          0
0                60.00      0          0          0          0
0                60.00      0          0          0          0
0                60.00      0          0          0          0
0                60.00      0          0          0          0
0                60.00      0          0          0          0
0                60.00      0          0          0          0
0                60.00      0          0          0          0
0                60.00      0          0          0          0
0                60.00      0          0          0          0
0                60.00      0          0          0          0
0                60.00      0          0          0          0
0                60.00      0          0          0          0
0                60.00      0          0          0          0
0                60.00      0          0          0          0
0                60.00      0          0          0          0
0                60.00      0          0          0          0
0                60.00      0          0          0          0
0                60.00      0          0          0          0
0                60.00      0          0          0          0
0                60.00      0          0          0          0
0                60.00      0          0          0          0
0                60.00      0          0          0          0
0                60.00      0          0          0          0
0                60.00      0          0          0          0
0                60.00      0          0          0          0
0                60.00      0          0          0          0
0                60.00      0          0          0          0
0                60.00      0          0          0          0
0                60.00      0          0          0          0
0                60.00      0          0          0          0
0                60.00      0          0          0          0
0                60.00      0          0          0          0
0                60.00      0          0          0          0
0                60.00      0          0          0          0
0                60.00      0          0          0          0
0                60.00      0          0          0          0
0                60.00      0          0          0          0
0                60.00      0          0          0          0
0                60.00      0          0          0          0
0                60.00      0          0          0          0
0                60.00      0          0          0          0
0                60.00      0          0          0          0
0                60.00      0          0          0          0
0                60.00      0          0          0          0
0                60.00      0          0          0          0
0                60.00      0          0          0          0
0                60.00      0          0          0          0
0                60.00      0          0          0          0
0                60.00      0          0          0          0
0                60.00      0          0          0          0
0                60.00      0          0          0          0
0                60.00      0          0          0          0
0                60.00      0          0          0          0
0                60.00      0          0          0          0
0                60.00      0          0          0          0
0                60.00      0          0          0          0
0                60.00      0          0          0          0
0                60.00      0          0          0          0
0                0          0          0          0          0
0                0          0          0          0          0

[CONDUITS]
;;Name           From             To               Length     Roughness  InOffset   OutOffset  InitFlow   MaxFlow
;;-------------- ---------------- ---------------- ---------- ---------- ---------- ---------- ---------- ----------
205              0                0                50.00      0.0140     51.85      49.67      0          0
206              0                0                50.00      0.0140     49.67      49.17      0          0
208              0                0                50.00      0.0140     50.00      50.00      0          0
210              0                0                50.00      0.0140     50.00      50.00      0          0
215              0                0                50.00      0.0140     50.00      50.00      0          0
216              0                0                50.00      0.0140     50.00      50.00      0          0
218              0                0                50.00      0.0140     50.00      50.00      0          0
220              ?                0                50.00      0.0140     50.00      50.00      0          0
223              0                0                50.00      0.0140     50.00      50.00      0          0
224              0                0                50.00      0.0140     50.00      50.00      0          0
212              0                0                50.00      0.0140     50.00      50.00      0          0
227              0                0                50.00      0.0140     50.00      50.00      0          0
231              0                0                50.00      0.0140     50.00      50.00      0          0
232              0                0                50.00      0.0140     50.00      50.00      0          0
227              0                0                50.00      0.0140     50.00      50.00      0          0
235              0                0                50.00      0.0140     50.00      50.00      0          0
239              0                0                50.00      0.0140     50.00      50.00      0          0
241              0                0                50.00      0.0140     50.00      50.00      0          0
237              0                0                50.00      0.0140     50.00      50.00      0          0
243              0                0                50.00      0.0140     50.00      50.00      0          0
247              0                0                50.00      0.0140     50.00      50.00      0          0
250              0                0                50.00      0.0140     50.00      50.00      0          0
251              0                0                50.00      0.0140     50.00      50.00      0          0
248              0                0                50.00      0.0140     50.00      50.00      0          0
255              0                0                50.00      0.0140     50.00      50.00      0          0
245              0                0                50.00      0.0140     50.00      50.00      0          0
257              0                0                50.00      0.0140     50.00      50.00      0          0
259              0                0                50.00      0.0140     50.00      50.00      0          0
261              0                0                50.00      0.0140     50.00      50.00      0          0
263              0                0                50.00      0.0140     50.00      50.00      0          0
265              0                0                50.00      0.0140     50.00      50.00      0          0
268              0                0                50.00      0.0140     50.00      50.00      0          0
270              0                0                50.00      0.0140     50.00      50.00      0          0
272              0                0                50.00      0.0140     50.00      50.00      0          0
274              0                0                50.00      0.0140     50.00      50.00      0          0
278              0                0                50.00      0.0140     50.00      50.00      0          0
276              0                0                50.00      0.0140     50.00      50.00      0          0
280              0                0                50.00      0.0140     50.00      50.00      0          0
282              0                0                50.00      0.0140     50.00      50.00      0          0
284              0                0                50.00      0.0140     50.00      50.00      0          0
288              ?                0                50.00      0.0140     50.00      50.00      0          0
290              0                0                50.00      0.0140     50.00      50.00      0          0
291              0                0                50.00      0.0140     50.00      50.00      0          0
294              0                0                50.00      0.0140     50.00      50.00      0          0
296              0                0                50.00      0.0140     50.00      50.00      0          0
298              0                0                50.00      0.0140     50.00      50.00      0          0
300              0                0                50.00      0.0140     50.00      50.00      0          0
301              0                0                50.00      0.0140     50.00      50.00      0          0
303              0                0                50.00      0.0140     50.00      50.00      0          0
305              0                0                50.00      0.0140     50.00      50.00      0          0
307              0                0                50.00      0.0140     50.00      50.00      0          0
309              0                0                50.00      0.0140     50.00      50.00      0          0
311              0                0                50.00      0.0140     50.00      50.00      0          0
314              0                0                50.00      0.0140     50.00      50.00      0          0
315              0                0                50.00      0.0140     50.00      50.00      0          0
317              0                0                50.00      0.0140     50.00      50.00      0          0
319              0                0                50.00      0.0140     50.00      50.00      0          0
321              0                0                50.00      0.0140     50.00      50.00      0          0
324              0                0                50.00      0.0140     50.00      50.00      0          0
325              0                0                50.00      0.0140     50.00      50.00      0          0
329              0                0                50.00      0.0140     50.00      50.00      0          0
330              0                0                50.00      0.0140     50.00      50.00      0          0
333              0                0                50.00      0.0140     50.00      50.00      0          0
334              0                0                50.00      0.0140     50.00      50.00      0          0
336              0                0                50.00      0.0140     50.00      50.00      0          0
338              0                0                50.00      0.0140     50.00      50.00      0          0
341              0                0                50.00      0.0140     50.00      50.00      0          0
284              0                0                50.00      0.0140     50.00      50.00      0          0
343              0                0                50.00      0.0140     50.00      50.00      0          0
345              0                0                50.00      0.0140     50.00      50.00      0          0
351              0                0                50.00      0.0140     50.00      50.00      0          0
353              0                0                50.00      0.0140     50.00      50.00      0          0
357              0                0                50.00      0.0140     50.00      50.00      0          0
355              0                0                50.00      0.0140     50.00      50.00      0          0
361              0                0                50.00      0.0140     50.00      50.00      0          0
347              0                0                50.00      0.0140     50.00      50.00      0          0
364              0                0                50.00      0.0140     50.00      50.00      0          0
366              0                0                0          0          0          0          0          0
367              0                0                0          0          0          0          0          0

[XSECTIONS]
;;Link           Shape        Geom1      Geom2      Geom3      Geom4      Barrels
;;-------------- ------------ ---------- ---------- ---------- ---------- ----------
205              CIRCULAR     2.00       0          0          0          1
206              CIRCULAR     2.00       0          0          0          1
208              CIRCULAR     2.00       0          0          0          1
210              CIRCULAR     2.00       0          0          0          1
215              CIRCULAR     2.00       0          0          0          1
216              CIRCULAR     2.00       0          0          0          1
218              CIRCULAR     2.00       0          0          0          1
220              CIRCULAR     2.00       0          0          0          1
223              CIRCULAR     2.00       0          0          0          1
224              CIRCULAR     2.00       0          0          0          1
212              CIRCULAR     2.00       0          0          0          1
227              CIRCULAR     2.00       0          0          0          1
231              CIRCULAR     2.00       0          0          0          1
232              CIRCULAR     2.00       0          0          0          1
227              CIRCULAR     2.00       0          0          0          1
235              CIRCULAR     2.00       0          0          0          1
239              CIRCULAR     2.00       0          0          0          1
241              CIRCULAR     2.00       0          0          0          1
237              CIRCULAR     2.00       0          0          0          1
243              CIRCULAR     2.00       0          0          0          1
247              CIRCULAR     2.00       0          0          0          1
250              CIRCULAR     2.00       0          0          0          1
251              CIRCULAR     2.00       0          0          0          1
248              CIRCULAR     2.00       0          0          0          1
255              CIRCULAR     2.00       0          0          0          1
245              CIRCULAR     2.00       0          0          0          1
257              CIRCULAR     2.00       0          0          0          1
259              CIRCULAR     2.00       0          0          0          1
261              CIRCULAR     2.00       0          0          0          1
263              CIRCULAR     2.00       0          0          0          1
265              CIRCULAR     2.00       0          0          0          1
268              CIRCULAR     2.00       0          0          0          1
270              CIRCULAR     2.00       0          0          0          1
272              CIRCULAR     2.00       0          0          0          1
274              CIRCULAR     2.00       0          0          0          1
278              CIRCULAR     2.00       0          0          0          1
276              CIRCULAR     2.00       0          0          0          1
280              CIRCULAR     2.00       0          0          0          1
282              CIRCULAR     2.00       0          0          0          1
284              CIRCULAR     2.00       0          0          0          1
288              CIRCULAR     2.00       0          0          0          1
290              CIRCULAR     2.00       0          0          0          1
291              CIRCULAR     2.00       0          0          0          1
294              CIRCULAR     2.00       0          0          0          1
296              CIRCULAR     2.00       0          0          0          1
298              CIRCULAR     2.00       0          0          0          1
300              CIRCULAR     2.00       0          0          0          1
301              CIRCULAR     2.00       0          0          0          1
303              CIRCULAR     2.00       0          0          0          1
305              CIRCULAR     2.00       0          0          0          1
307              CIRCULAR     2.00       0          0          0          1
309              CIRCULAR     2.00       0          0          0          1
311              CIRCULAR     2.00       0          0          0          1
314              CIRCULAR     2.00       0          0          0          1
315              CIRCULAR     2.00       0          0          0          1
317              CIRCULAR     2.00       0          0          0          1
319              CIRCULAR     2.00       0          0          0          1
321              CIRCULAR     2.00       0          0          0          1
324              CIRCULAR     2.00       0          0          0          1
325              CIRCULAR     2.00       0          0          0          1
329              CIRCULAR     2.00       0          0          0          1
330              CIRCULAR     2.00       0          0          0          1
333              CIRCULAR     2.00       0          0          0          1
334              CIRCULAR     2.00       0          0          0          1
336              CIRCULAR     2.00       0          0          0          1
338              CIRCULAR     2.00       0          0          0          1
341              CIRCULAR     2.00       0          0          0          1
284              CIRCULAR     2.00       0          0          0          1
343              CIRCULAR     2.00       0          0          0          1
345              CIRCULAR     2.00       0          0          0          1
351              CIRCULAR     2.00       0          0          0          1
353              CIRCULAR     2.00       0          0          0          1
357              CIRCULAR     2.00       0          0          0          1
355              CIRCULAR     2.00       0          0          0          1
361              CIRCULAR     2.00       0          0          0          1
347              CIRCULAR     2.00       0          0          0          1
364              CIRCULAR     2.00       0          0          0          1
366              CIRCULAR     0          0          0          0          1
367              CIRCULAR     0          0          0          0          1

[LOSSES]
;;Link           Inlet      Outlet     Average    Flap Gate
;;-------------- ---------- ---------- ---------- ----------
205              0          0          0          NO
206              0          0          0          NO
208              0          0          0          NO
210              0          0          0          NO
215              0          0          0          NO
216              0          0          0          NO
218              0          0          0          NO
220              0          0          0          NO
223              0          0          0          NO
224              0          0          0          NO
212              0          0          0          NO
227              0          0          0          NO
231              0          0          0          NO
232              0          0          0          NO
227              0          0          0          NO
235              0          0          0          NO
239              0          0          0          NO
241              0          0          0          NO
237              0          0          0          NO
243              0          0          0          NO
247              0          0          0          NO
250              0          0          0          NO
251              0          0          0          NO
248              0          0          0          NO
255              0          0          0          NO
245              0          0          0          NO
257              0          0          0          NO
259              0          0          0          NO
261              0          0          0          NO
263              0          0          0          NO
265              0          0          0          NO
268              0          0          0          NO
270              0          0          0          NO
272              0          0          0          NO
274              0          0          0          NO
278              0          0          0          NO
276              0          0          0          NO
280              0          0          0          NO
282              0          0          0          NO
284              0          0          0          NO
288              0          0          0          NO
290              0          0          0          NO
291              0          0          0          NO
294              0          0          0          NO
296              0          0          0          NO
298              0          0          0          NO
300              0          0          0          NO
301              0          0          0          NO
303              0          0          0          NO
305              0          0          0          NO
307              0          0          0          NO
309              0          0          0          NO
311              0          0          0          NO
314              0          0          0          NO
315              0          0          0          NO
317              0          0          0          NO
319              0          0          0          NO
321              0          0          0          NO
324              0          0          0          NO
325              0          0          0          NO
329              0          0          0          NO
330              0          0          0          NO
333              0          0          0          NO
334              0          0          0          NO
336              0          0          0          NO
338              0          0          0          NO
341              0          0          0          NO
284              0          0          0          NO
343              0          0          0          NO
345              0          0          0          NO
351              0          0          0          NO
353              0          0          0          NO
357              0          0          0          NO
355              0          0          0          NO
361              0          0          0          NO
347              0          0          0          NO
364              0          0          0          NO
366              0          0          0          NO
367              0          0          0          NO

[COORDINATES]
;;Node           X-Coord            Y-Coord
;;-------------- ------------------ ------------------
0                7.64               117.64            
0                7.64               127.64            
0                7.64               137.64            
0                7.64               147.64            
0                17.64              147.64            
0                17.64              207.64            
0                27.64              207.64            
0                27.64              177.64            
0                17.64              157.64            
0                27.64              237.64            
0                27.64              217.64            
0                37.64              147.64            
0                37.64              157.64            
0                37.64              187.64            
0                37.64              177.64            
0                57.64              147.64            
0                67.64              147.64            
0                57.64              177.64            
0                67.64              177.64            
0                87.64              147.64            
0                97.64              137.64            
0                107.64             117.64            
0                107.64             137.64            
0                107.64             177.64            
0                107.64             157.64            
0                87.64              137.64            
0                97.64              127.64            
0                87.64              127.64            
0                77.64              127.64            
0                77.64              107.64            
0                77.64              87.64             
0                77.64              67.64             
0                77.64              47.64             
0                107.64             47.64             
0                117.64             47.64             
0                137.64             47.64             
0                107.64             37.64             
0                157.64             47.64             
0                177.64             47.64             
0                197.64             47.64             
0                197.64             37.64             
0                197.64             77.64             
0                207.64             107.64            
0                207.64             77.64             
0                177.64             77.64             
0                177.64             107.64            
0                177.64             137.64            
0                197.64             197.64            
0                197.64             187.64            
0                197.64             177.64            
0                197.64             167.64            
0                197.64             157.64            
0                197.64             147.64            
0                197.64             137.64            
0                167.64             197.64            
0                167.64             187.64            
0                167.64             177.64            
0                167.64             157.64            
0                167.64             137.64            
0                167.64             97.64             
0                167.64             117.64            
0                127.64             137.64            
0                147.64             137.64            
0                237.64             27.64             
0                227.64             27.64             
0                217.64             27.64             
0                207.64             27.64             
0                247.64             27.64             
0                207.64             57.64             
0                227.64             57.64             
0                247.64             57.64             
0                247.64             97.64             
0                267.64             97.64             
0                267.64             127.64            
0                267.64             157.64            
0                277.64             127.64            
0                247.64             117.64            
0                277.64             87.64             
0                247.64             177.64            
0                247.64             157.64            

[MAP]
DIMENSIONS 7.64 27.64 277.64 237.64
Units      None

[REPORT]
INPUT            YES
SUBCATCHMENTS    ALL
NODES            ALL
LINKS            ALL



