;; SWMM5 .inp converted from XPSWMM .xp file
;; Generated by XPSWMM Card Reader
;; Source format: XP_CARD | Original title: PENHILLS INTERCEPTOR MODEL

[TITLE]
;;Project Title/Notes
PENHILLS INTERCEPTOR MODEL

[OPTIONS]
FLOW_UNITS           CFS
INFILTRATION         HORTON
FLOW_ROUTING         DYNWAVE
LINK_OFFSETS         DEPTH
MIN_SLOPE            0.0
ALLOW_PONDING        NO
SKIP_STEADY_STATE    NO
ROUTING_STEP         00:00:15
VARIABLE_STEP        0.75
INERTIAL_DAMPING     PARTIAL
NORMAL_FLOW_LIMITED  BOTH
MAX_TRIALS           50
HEAD_TOLERANCE       0.0033

[JUNCTIONS]
;;Name           Elev       MaxDepth   InitDepth  SurDepth   Aponded
;;-------------- ---------- ---------- ---------- ---------- ----------
310d             899.67     0          0          0          0
310c             895.98     0          0          0          0
310b             896.59     0          0          0          0
310              898.61     0          0          0          0
308              891.30     0          0          0          0
307a             891.75     0          0          0          0
306              891.67     0          0          0          0
305              890.12     0          0          0          0
302              889.20     0          0          0          0
301              884.62     0          0          0          0
233b             885.00     0          0          0          0
233a             882.33     0          0          0          0
233              874.67     0          0          0          0
232              873.77     0          0          0          0
231              870.87     0          0          0          0
230              870.87     0          0          0          0
229              874.82     0          0          0          0
228              871.30     0          0          0          0
227              871.20     0          0          0          0
226              869.85     0          0          0          0
225              869.80     0          0          0          0
224              869.17     0          0          0          0
223              865.67     0          0          0          0
222              865.27     0          0          0          0
221              864.17     0          0          0          0
220              863.07     0          0          0          0
219              862.67     0          0          0          0
218              864.79     0          0          0          0
217              859.69     0          0          0          0
216a             862.48     0          0          0          0
216              858.63     0          0          0          0
215a             853.80     0          0          0          0
215              851.10     0          0          0          0
214              851.28     0          0          0          0
213              852.20     0          0          0          0
212              844.63     0          0          0          0
211              842.89     0          0          0          0
210              850.84     0          0          0          0
209              843.05     0          0          0          0
208              836.88     0          0          0          0
207              837.65     0          0          0          0
206              836.57     0          0          0          0
205              833.59     0          0          0          0
204              828.27     0          0          0          0
203              831.46     0          0          0          0
202              834.00     0          0          0          0
201              827.38     0          0          0          0
202a             824.93     0          0          0          0
201a             821.33     0          0          0          0
200a             822.89     0          0          0          0
199a             818.00     0          0          0          0
198a             814.17     0          0          0          0
197a             816.66     0          0          0          0
196a             816.93     0          0          0          0
195a             815.85     0          0          0          0
194a             810.90     0          0          0          0
192              809.47     0          0          0          0
191              808.37     0          0          0          0
190              807.66     0          0          0          0
189              806.10     0          0          0          0
188              803.54     0          0          0          0
187              801.87     0          0          0          0
186              804.28     0          0          0          0
185              798.00     0          0          0          0
184              799.88     0          0          0          0
183              797.52     0          0          0          0
182              796.86     0          0          0          0
181              795.34     0          0          0          0
180              793.59     0          0          0          0
179a             788.54     0          0          0          0
179              789.45     0          0          0          0
178a             789.58     0          0          0          0
178              787.29     0          0          0          0
177a             787.97     0          0          0          0
176a             787.75     0          0          0          0
176              785.84     0          0          0          0
175              784.80     0          0          0          0
174i             786.13     0          0          0          0
174h             785.04     0          0          0          0
174g             784.76     0          0          0          0
174f             784.56     0          0          0          0
174e             786.03     0          0          0          0
174d             787.51     0          0          0          0
174c             786.51     0          0          0          0
174b             787.12     0          0          0          0
174a             785.26     0          0          0          0
TP               783.35     0          0          0          0
308A             891.80     0          0          0          0
307B             892.25     0          0          0          0
306A             892.17     0          0          0          0
305A             890.62     0          0          0          0
PS               785.26     0          0          0          0
TP1              783.35     0          0          0          0
301A             885.12     0          0          0          0
302A             889.70     0          0          0          0
308              891.30     0          0          0          0
307a             891.75     0          0          0          0
306              891.67     0          0          0          0
305              890.12     0          0          0          0
302              889.20     0          0          0          0
301              884.62     0          0          0          0
300              885.15     0          0          0          0
233b             883.55     0          0          0          0
233a             882.33     0          0          0          0

[STORAGE]
;;Name           Elev       MaxDepth   InitDepth  Shape      Curve/Params
;;-------------- ---------- ---------- ---------- ---------- ----------
BALL             908.68     -0.68      0          FUNCTIONAL 50000.00 0          0
310a             892.24     -0.24      0          FUNCTIONAL 5000.00 0          0
LBR              890.48     -1.48      0          FUNCTIONAL 5000.00 0          0
MER              888.92     0          0          FUNCTIONAL 18548.20 0          0
303              887.49     -1.00      0          FUNCTIONAL 40000.00 0          0
300              885.65     0          0          FUNCTIONAL 200.00 0          0
193              808.75     -1.00      0          FUNCTIONAL 22000.00 0          0
LBR1             890.58     -1.58      0          FUNCTIONAL 5000.00 0          0
MER1             889.42     0.58       0          FUNCTIONAL 25000.00 0          0
T                925.00     0          0          FUNCTIONAL 5026.50 0          0
WW1              885.65     0          0          FUNCTIONAL 200.00 0          0
303A             887.99     -1.50      0          FUNCTIONAL 40000.00 0          0
MER              888.92     0          0          FUNCTIONAL 18548.20 0          0
303              887.49     -1.00      0          FUNCTIONAL 40000.00 0          0
LBR              890.48     -1.48      0          FUNCTIONAL 5000.00 0          0
WW               885.65     0          0          FUNCTIONAL 200.00 0          0

[CONDUITS]
;;Name           From             To               Length     Roughness  InOffset   OutOffset  InitFlow   MaxFlow
;;-------------- ---------------- ---------------- ---------- ---------- ---------- ---------- ---------- ----------
1                BALL             310d             100.00     0.0130     902.85     893.10     0          0
2                310d             310c             185.00     0.0130     893.00     891.08     0          0
3                310c             310b             155.00     0.0130     890.98     890.76     0          0
4                310b             310a             40.00      0.0130     890.76     886.66     0          0
5                310a             310              100.00     0.0130     886.41     886.11     0          0
6                310              LBR              540.99     0.0130     886.11     884.48     0          0
7                LBR              308              225.84     0.0130     884.48     883.80     0          0
8                308              307a             131.72     0.0130     883.80     883.42     0          0
9                307a             306              307.45     0.0130     883.42     882.50     0          0
10               306              305              234.02     0.0130     882.50     881.79     0          0
11               305              MER              291.60     0.0130     881.79     880.92     0          0
12               MER              303              218.47     0.0130     880.92     879.99     0          0
13               303              302              206.12     0.0130     879.99     879.20     0          0
14               302              301              139.00     0.0130     879.20     878.79     0          0
15               301              300              299.41     0.0130     878.79     876.82     0          0
16               300              233b             275.13     0.0130     876.82     874.38     0          0
17               233b             233a             218.84     0.0130     874.38     872.33     0          0
18               233a             233              299.27     0.0130     872.33     869.67     0          0
19               233              232              291.23     0.0130     869.67     867.10     0          0
20               232              231              299.01     0.0130     867.10     865.87     0          0
21               231              230              187.10     0.0130     865.87     865.07     0          0
22               230              229              266.75     0.0130     865.07     863.99     0          0
23               229              228              218.87     0.0130     863.99     862.97     0          0
24               228              227              218.35     0.0130     862.97     862.03     0          0
25               227              226              194.66     0.0130     862.03     861.52     0          0
26               226              225              243.60     0.0130     861.52     860.63     0          0
27               225              224              299.62     0.0130     860.63     860.00     0          0
28               224              223              296.25     0.0130     860.00     859.00     0          0
29               223              222              187.18     0.0130     859.00     858.60     0          0
30               222              221              299.07     0.0130     858.60     857.50     0          0
31               221              220              306.25     0.0130     857.50     856.40     0          0
32               220              219              250.53     0.0130     856.40     853.50     0          0
33               219              218              378.93     0.0130     853.50     852.29     0          0
34               218              217              290.07     0.0130     852.29     851.36     0          0
35               217              216a             162.65     0.0130     851.36     850.81     0          0
36               216a             216              163.16     0.0130     850.81     850.30     0          0
37               216              215a             218.30     0.0130     850.30     848.80     0          0
38               215a             215              235.88     0.0130     848.80     843.60     0          0
39               215              214              276.24     0.0130     843.60     840.45     0          0
40               214              213              175.02     0.0130     840.45     837.20     0          0
41               213              212              259.17     0.0130     837.20     836.30     0          0
42               212              211              272.18     0.0130     836.30     835.39     0          0
43               211              210              122.92     0.0130     835.39     835.01     0          0
44               210              209              307.05     0.0130     835.01     833.05     0          0
45               209              208              299.26     0.0130     833.05     831.05     0          0
46               208              207              274.86     0.0130     831.05     830.15     0          0
47               207              206              211.39     0.0130     830.15     828.24     0          0
48               206              205              210.43     0.0130     828.24     826.09     0          0
49               205              204              201.84     0.0130     826.09     824.10     0          0
50               204              203              122.52     0.0130     824.10     823.13     0          0
51               203              202              282.78     0.0130     823.13     820.67     0          0
52               202              201              235.42     0.0130     820.67     819.05     0          0
53               201              202a             282.48     0.0130     819.05     816.60     0          0
54               202a             201a             122.33     0.0130     816.60     815.50     0          0
55               201a             200a             202.66     0.0130     815.50     813.72     0          0
56               200a             199a             179.46     0.0130     813.72     812.17     0          0
57               199a             198a             250.83     0.0130     812.17     810.00     0          0
58               198a             197a             170.78     0.0130     810.00     809.16     0          0
59               197a             196a             114.40     0.0130     809.16     808.60     0          0
60               196a             195a             224.39     0.0130     808.60     807.52     0          0
61               195a             194a             282.55     0.0130     807.52     805.90     0          0
62               194a             193              273.81     0.0130     805.90     803.75     0          0
63               193              192              122.78     0.0130     803.75     802.80     0          0
64               192              191              250.11     0.0130     802.80     800.87     0          0
65               191              190              298.48     0.0130     800.87     798.49     0          0
66               190              189              331.57     0.0130     798.49     796.93     0          0
67               189              188              203.45     0.0130     796.93     796.04     0          0
68               188              187              170.86     0.0130     796.04     795.20     0          0
69               187              186              199.06     0.0130     795.20     794.28     0          0
70               186              185              283.12     0.0130     794.28     793.00     0          0
71               185              184              259.71     0.0130     793.00     791.55     0          0
72               184              183              283.11     0.0130     791.55     790.02     0          0
73               183              182              275.52     0.0130     790.02     788.53     0          0
74               182              181              275.52     0.0130     788.53     787.01     0          0
75               181              180              170.48     0.0130     787.01     786.09     0          0
76               180              179a             162.98     0.0130     786.09     785.21     0          0
77               179a             179              147.78     0.0130     785.21     784.45     0          0
78               179              178a             115.03     0.0130     784.45     783.75     0          0
79               178a             178              170.92     0.0130     783.75     782.79     0          0
80               178              177a             138.50     0.0130     782.29     782.14     0          0
81               177a             176a             219.83     0.0130     782.14     781.92     0          0
82               176a             176              251.14     0.0130     781.92     781.67     0          0
83               176              175              203.09     0.0130     781.67     781.47     0          0
84               175              174i             220.26     0.0130     781.47     781.13     0          0
85               174i             174h             259.41     0.0130     781.13     780.87     0          0
86               174h             174g             282.76     0.0130     780.87     780.59     0          0
87               174g             174f             195.66     0.0130     780.59     780.39     0          0
88               174f             174e             202.98     0.0130     780.39     780.20     0          0
89               174e             174d             179.00     0.0130     780.20     780.01     0          0
90               174d             174c             179.55     0.0130     780.01     779.84     0          0
91               174c             174b             219.01     0.0130     779.84     779.62     0          0
92               174b             174a             187.58     0.0130     779.62     779.43     0          0
93               174a             TP               48.40      0.0130     779.43     779.35     0          0
7A               LBR1             308A             225.84     0.0130     883.98     883.30     0          0
8A               308A             307B             131.72     0.0130     883.30     882.92     0          0
9A               307B             306A             307.45     0.0130     882.92     882.00     0          0
10A              306A             305A             234.02     0.0130     882.00     881.29     0          0
11A              305A             MER1             291.60     0.0130     881.29     880.42     0          0
PPS              PS               TP               48.40      0.0130     779.43     779.35     0          0
P1               TP               TP1              200.00     0.0130     779.35     779.02     0          0
15A              301A             WW1              299.41     0.0130     878.29     876.32     0          0
14A              302A             301A             139.00     0.0130     878.70     878.29     0          0
13A              303A             302A             206.12     0.0130     879.49     878.70     0          0
12A              MER1             303A             218.47     0.0130     880.42     879.49     0          0
CC2              LBR              LBR1             200.00     0.0130     884.98     883.98     0          0
8                308              307a             131.72     0.0130     883.80     883.42     0          0
9                307a             306              307.45     0.0130     883.42     882.50     0          0
10               306              305              234.02     0.0130     882.50     881.79     0          0
11               305              MER              291.60     0.0130     881.79     880.92     0          0
12               MER              303              218.47     0.0130     880.92     879.99     0          0
13               303              302              206.12     0.0130     879.99     879.20     0          0
14               302              301              139.00     0.0130     879.20     878.79     0          0
15               301              300              299.41     0.0130     878.79     876.82     0          0
7                LBR              308              225.84     0.0130     884.48     883.80     0          0
16               300              233b             275.13     0.0130     876.82     874.38     0          0
17               233b             233a             218.84     0.0130     874.38     872.33     0          0

[ORIFICES]
;;Name           From             To               Type       Offset     Qcoeff     Gated    CloseTime
;;-------------- ---------------- ---------------- ---------- ---------- ---------- -------- ----------
TE               T                233b             SIDE       881.17     0.650      NO       0

[WEIRS]
;;Name           From             To               Type       CrestHt    Qcoeff     Gated    EndCon   EndCoeff   Surcharge
;;-------------- ---------------- ---------------- ---------- ---------- ---------- -------- -------- ---------- ----------
834.1            300              WW               V-NOTCH    876.92     1.840      NO       0        0          YES

[PUMPS]
;;Name           From             To               PumpCurve  Status   Startup    Shutoff
;;-------------- ---------------- ---------------- ---------- -------- ---------- ----------
TIN              WW               T                PC_TIN     ON       0          0         

[CURVES]
;;Name           Type       X-Value    Y-Value
;;-------------- ---------- ---------- ----------
PC_TIN           Pump2      0          0
;

[XSECTIONS]
;;Link           Shape        Geom1      Geom2      Geom3      Geom4      Barrels
;;-------------- ------------ ---------- ---------- ---------- ---------- ----------
1                CIRCULAR     1.25       0          0          0          1
2                CIRCULAR     1.25       0          0          0          1
3                CIRCULAR     1.25       0          0          0          1
4                CIRCULAR     1.25       0          0          0          1
5                CIRCULAR     1.50       0          0          0          1
6                CIRCULAR     1.50       0          0          0          1
7                CIRCULAR     2.00       0          0          0          1
8                CIRCULAR     2.00       0          0          0          1
9                CIRCULAR     2.00       0          0          0          1
10               CIRCULAR     2.00       0          0          0          1
11               CIRCULAR     2.00       0          0          0          1
12               CIRCULAR     3.00       0          0          0          1
13               CIRCULAR     3.00       0          0          0          1
14               CIRCULAR     3.00       0          0          0          1
15               CIRCULAR     3.00       0          0          0          1
16               CIRCULAR     1.00       0          0          0          1
17               CIRCULAR     1.75       0          0          0          1
18               CIRCULAR     1.75       0          0          0          1
19               CIRCULAR     1.75       0          0          0          1
20               CIRCULAR     1.75       0          0          0          1
21               CIRCULAR     1.75       0          0          0          1
22               CIRCULAR     1.75       0          0          0          1
23               CIRCULAR     1.75       0          0          0          1
24               CIRCULAR     1.75       0          0          0          1
25               CIRCULAR     1.75       0          0          0          1
26               CIRCULAR     1.75       0          0          0          1
27               CIRCULAR     1.75       0          0          0          1
28               CIRCULAR     1.75       0          0          0          1
29               CIRCULAR     1.75       0          0          0          1
30               CIRCULAR     1.75       0          0          0          1
31               CIRCULAR     1.75       0          0          0          1
32               CIRCULAR     1.75       0          0          0          1
33               CIRCULAR     1.75       0          0          0          1
34               CIRCULAR     1.75       0          0          0          1
35               CIRCULAR     1.75       0          0          0          1
36               CIRCULAR     1.75       0          0          0          1
37               CIRCULAR     1.75       0          0          0          1
38               CIRCULAR     1.75       0          0          0          1
39               CIRCULAR     1.75       0          0          0          1
40               CIRCULAR     1.75       0          0          0          1
41               CIRCULAR     1.75       0          0          0          1
42               CIRCULAR     1.75       0          0          0          1
43               CIRCULAR     1.75       0          0          0          1
44               CIRCULAR     1.75       0          0          0          1
45               CIRCULAR     1.75       0          0          0          1
46               CIRCULAR     1.75       0          0          0          1
47               CIRCULAR     1.75       0          0          0          1
48               CIRCULAR     1.75       0          0          0          1
49               CIRCULAR     1.75       0          0          0          1
50               CIRCULAR     1.75       0          0          0          1
51               CIRCULAR     1.75       0          0          0          1
52               CIRCULAR     1.75       0          0          0          1
53               CIRCULAR     1.75       0          0          0          1
54               CIRCULAR     1.75       0          0          0          1
55               CIRCULAR     1.75       0          0          0          1
56               CIRCULAR     1.75       0          0          0          1
57               CIRCULAR     1.75       0          0          0          1
58               CIRCULAR     1.75       0          0          0          1
59               CIRCULAR     1.75       0          0          0          1
60               CIRCULAR     1.75       0          0          0          1
61               CIRCULAR     1.75       0          0          0          1
62               CIRCULAR     1.75       0          0          0          1
63               CIRCULAR     1.75       0          0          0          1
64               CIRCULAR     1.75       0          0          0          1
65               CIRCULAR     1.75       0          0          0          1
66               CIRCULAR     1.75       0          0          0          1
67               CIRCULAR     1.75       0          0          0          1
68               CIRCULAR     1.75       0          0          0          1
69               CIRCULAR     1.75       0          0          0          1
70               CIRCULAR     1.75       0          0          0          1
71               CIRCULAR     1.75       0          0          0          1
72               CIRCULAR     1.75       0          0          0          1
73               CIRCULAR     1.75       0          0          0          1
74               CIRCULAR     1.75       0          0          0          1
75               CIRCULAR     1.75       0          0          0          1
76               CIRCULAR     1.75       0          0          0          1
77               CIRCULAR     1.75       0          0          0          1
78               CIRCULAR     1.75       0          0          0          1
79               CIRCULAR     1.75       0          0          0          1
80               CIRCULAR     2.25       0          0          0          1
81               CIRCULAR     2.25       0          0          0          1
82               CIRCULAR     2.25       0          0          0          1
83               CIRCULAR     2.25       0          0          0          1
84               CIRCULAR     2.25       0          0          0          1
85               CIRCULAR     2.25       0          0          0          1
86               CIRCULAR     2.25       0          0          0          1
87               CIRCULAR     2.25       0          0          0          1
88               CIRCULAR     2.25       0          0          0          1
89               CIRCULAR     2.25       0          0          0          1
90               CIRCULAR     2.25       0          0          0          1
91               CIRCULAR     2.25       0          0          0          1
92               CIRCULAR     2.25       0          0          0          1
93               CIRCULAR     2.25       0          0          0          1
7A               CIRCULAR     1.50       0          0          0          1