;; SWMM5 .inp converted from XPSWMM .xp file
;; Generated by XPSWMM Card Reader
;; Source format: XP_CARD | Original title: SWMM Extran simulation of High Density Residential (HDR) Basin

[TITLE]
;;Project Title/Notes
SWMM Extran simulation of High Density Residential (HDR) Basin

[OPTIONS]
FLOW_UNITS           CFS
INFILTRATION         HORTON
FLOW_ROUTING         DYNWAVE
LINK_OFFSETS         DEPTH
MIN_SLOPE            0.0
ALLOW_PONDING        NO
SKIP_STEADY_STATE    NO
ROUTING_STEP         00:00:20
VARIABLE_STEP        0.75
INERTIAL_DAMPING     PARTIAL
NORMAL_FLOW_LIMITED  BOTH

[JUNCTIONS]
;;Name           Elev       MaxDepth   InitDepth  SurDepth   Aponded
;;-------------- ---------- ---------- ---------- ---------- ----------
113              9.45       0          0          0          0
313              9.45       0          0          0          0
312              9.15       0          0          0          0
111              8.80       0          0          0          0
105              9.30       0          0          0          0
101              9.30       0          0          0          0
900              9.30       0          0          0          0
110              9.19       0          0          0          0
109              9.40       0          0          0          0
108              8.48       0          0          0          0
107              8.77       0          0          0          0
106              9.14       0          0          0          0
104              9.24       0          0          0          0
102              9.80       0          0          0          0
103              9.47       0          0          0          0
112              9.15       0          0          0          0

[CONDUITS]
;;Name           From             To               Length     Roughness  InOffset   OutOffset  InitFlow   MaxFlow
;;-------------- ---------------- ---------------- ---------- ---------- ---------- ---------- ---------- ----------
213              113              313              110.00     0.0220     4.32       3.57       0          0
413              313              312              205.00     0.0220     3.57       3.08       0          0
412              312              111              175.00     0.0220     3.08       2.67       0          0
211              111              105              165.00     0.0220     2.67       2.50       0          0
205              105              101              240.00     0.0130     2.50       2.11       0          0
201              101              900              220.00     0.0130     2.11       1.00       0          0
210              110              109              210.00     0.0220     6.20       5.89       0          0
209              109              108              165.00     0.0220     5.89       5.26       0          0
208              108              107              40.00      0.0220     5.26       4.31       0          0
207              107              106              90.00      0.0220     4.31       3.66       0          0
206              106              105              40.00      0.0220     3.66       2.50       0          0
204              104              102              105.00     0.0220     3.10       3.06       0          0
202              102              101              32.00      0.0220     3.06       2.11       0          0
203              103              102              105.00     0.0220     3.14       3.06       0          0
212              112              312              110.00     0.0220     3.17       3.08       0          0

[XSECTIONS]
;;Link           Shape        Geom1      Geom2      Geom3      Geom4      Barrels
;;-------------- ------------ ---------- ---------- ---------- ---------- ----------
213              CIRCULAR     1.75       0          0          0          1
413              CIRCULAR     2.50       0          0          0          1
412              CIRCULAR     2.50       0          0          0          1
211              CIRCULAR     2.50       0          0          0          1
205              CIRCULAR     3.00       0          0          0          1
201              CIRCULAR     4.00       0          0          0          1
210              CIRCULAR     2.00       0          0          0          1
209              CIRCULAR     2.25       0          0          0          1
208              CIRCULAR     2.50       0          0          0          1
207              CIRCULAR     3.00       0          0          0          1
206              CIRCULAR     3.00       0          0          0          1
204              CIRCULAR     1.50       0          0          0          1
202              CIRCULAR     1.50       0          0          0          1
203              CIRCULAR     1.50       0          0          0          1
212              CIRCULAR     1.75       0          0          0          1

[LOSSES]
;;Link           Inlet      Outlet     Average    Flap Gate
;;-------------- ---------- ---------- ---------- ----------
213              0          0          0          NO
413              0          0          0          NO
412              0          0          0          NO
211              0          0          0          NO
205              0          0          0          NO
201              0          0          0          NO
210              0          0          0          NO
209              0          0          0          NO
208              0          0          0          NO
207              0          0          0          NO
206              0          0          0          NO
204              0          0          0          NO
202              0          0          0          NO
203              0          0          0          NO
212              0          0          0          NO

[COORDINATES]
;;Node           X-Coord            Y-Coord
;;-------------- ------------------ ------------------
113              28.25              28.25             
313              8.25               48.25             
312              28.25              68.25             
111              48.25              88.25             
105              78.25              88.25             
101              108.25             88.25             
900              138.25             88.25             
110              -1.75              148.25            
109              18.25              148.25            
108              38.25              148.25            
107              58.25              148.25            
106              68.25              118.25            
104              88.25              128.25            
102              108.25             128.25            
103              128.25             128.25            
112              48.25              48.25             

[MAP]
DIMENSIONS -1.75 28.25 138.25 148.25
Units      None

[REPORT]
INPUT            YES
SUBCATCHMENTS    ALL
NODES            ALL
LINKS            ALL



