;; SWMM5 .inp converted from XPSWMM .xp file
;; Generated by XPSWMM Card Reader
;; Source format: XP_CARD | Original title: BRIAR CREEK WATERSHED

[TITLE]
;;Project Title/Notes
BRIAR CREEK WATERSHED

[OPTIONS]
FLOW_UNITS           CFS
INFILTRATION         HORTON
FLOW_ROUTING         DYNWAVE
LINK_OFFSETS         DEPTH
MIN_SLOPE            0.0
ALLOW_PONDING        NO
SKIP_STEADY_STATE    NO
ROUTING_STEP         00:00:15
VARIABLE_STEP        0.75
INERTIAL_DAMPING     PARTIAL
NORMAL_FLOW_LIMITED  BOTH
MAX_TRIALS           50

[JUNCTIONS]
;;Name           Elev       MaxDepth   InitDepth  SurDepth   Aponded
;;-------------- ---------- ---------- ---------- ---------- ----------
39003            999.00     0          0          0          0
39069            999.00     0          0          0          0
39071            999.00     0          0          0          0
39075            999.00     0          0          0          0
39077            999.00     0          0          0          0
39083            999.00     0          0          0          0
39091            999.00     0          0          0          0
39119            999.00     0          0          0          0
38931            999.00     0          0          0          0
39121            999.00     0          0          0          0
39109            999.00     0          0          0          0
39113            999.00     0          0          0          0
39107            999.00     0          0          0          0
39115            999.00     0          0          0          0
39117            999.00     0          0          0          0
39123            999.00     0          0          0          0
39127            999.00     0          0          0          0
39129            999.00     0          0          0          0
39157            999.00     0          0          0          0
39133            999.00     0          0          0          0
39145            999.00     0          0          0          0
39163            999.00     0          0          0          0
39165            999.00     0          0          0          0
99999            999.00     0          0          0          0

[CONDUITS]
;;Name           From             To               Length     Roughness  InOffset   OutOffset  InitFlow   MaxFlow
;;-------------- ---------------- ---------------- ---------- ---------- ---------- ---------- ---------- ----------
38650            68650o           39069            330.00     0.0140     681.00     678.70     0          0
38652            38652o           39071            200.00     0.0140     678.70     677.20     0          0
38658            38658o           39075            80.00      0.0140     677.20     676.70     0          0
38660            38660o           39077            295.00     0.0140     676.70     676.20     0          0
38666            38666o           39083            135.00     0.0140     676.20     675.40     0          0
38676            38676o           39091            100.00     0.0140     675.40     674.60     0          0
38680            38680o           39119            60.00      0.0140     674.60     674.00     0          0
38706            38706o           39121            670.00     0.0140     676.70     675.40     0          0
38708            38708o           39119            90.00      0.0140     675.30     674.00     0          0
38692            38931            39109            70.00      0.0140     676.70     676.60     0          0
38096            39109            39113            130.00     0.0140     676.60     676.50     0          0
38698            39113            39107            190.00     0.0140     676.50     676.20     0          0
38700            39107            39115            210.00     0.0140     676.20     675.90     0          0
38702            39115            39117            160.00     0.0140     675.80     674.90     0          0
38704            39117            39119            28.00      0.0140     674.90     674.00     0          0
38710            38710o           39123            210.00     0.0140     673.90     671.80     0          0
38714            38714o           39127            85.00      0.0140     671.80     670.90     0          0
38716            38716o           39129            88.00      0.0140     670.90     670.70     0          0
38720            38720o           39157            110.00     0.0140     670.70     670.40     0          0
38744            38744o           39133            100.00     0.0140     670.40     669.90     0          0
38732            38732o           39145            160.00     0.0140     669.90     669.50     0          0
38750            38750o           39163            174.00     0.0140     669.50     668.90     0          0
38752            38752o           39165            250.00     0.0140     668.90     668.10     0          0
99998            39165            99999            200.00     0.0100     668.10     667.30     0          0

[XSECTIONS]
;;Link           Shape        Geom1      Geom2      Geom3      Geom4      Barrels
;;-------------- ------------ ---------- ---------- ---------- ---------- ----------
38650            CIRCULAR     7.00       0          0          0          1
38652            CIRCULAR     7.00       0          0          0          1
38658            CIRCULAR     7.00       0          0          0          1
38660            CIRCULAR     7.00       0          0          0          1
38666            CIRCULAR     7.00       0          0          0          1
38676            CIRCULAR     7.00       0          0          0          1
38680            CIRCULAR     7.00       0          0          0          1
38706            RECT_CLOSED  7.00       7.00       0          0          1
38708            RECT_CLOSED  7.00       7.00       0          0          1
38692            RECT_CLOSED  7.00       7.00       0          0          1
38096            RECT_CLOSED  7.00       7.00       0          0          1
38698            RECT_CLOSED  7.00       7.00       0          0          1
38700            RECT_CLOSED  7.00       7.00       0          0          1
38702            RECT_CLOSED  7.00       7.00       0          0          1
38704            RECT_CLOSED  7.00       7.00       0          0          1
38710            RECT_CLOSED  6.00       18.00      0          0          1
38714            RECT_CLOSED  6.00       18.00      0          0          1
38716            RECT_CLOSED  6.00       18.00      0          0          1
38720            RECT_CLOSED  6.00       18.00      0          0          1
38744            RECT_CLOSED  6.00       18.00      0          0          1
38732            RECT_CLOSED  6.00       18.00      0          0          1
38750            RECT_CLOSED  6.00       18.00      0          0          1
38752            RECT_CLOSED  6.00       18.00      0          0          1
99998            RECT_CLOSED  18.00      30.00      0          0          1

[LOSSES]
;;Link           Inlet      Outlet     Average    Flap Gate
;;-------------- ---------- ---------- ---------- ----------
38650            0          0          0          NO
38652            0          0          0          NO
38658            0          0          0          NO
38660            0          0          0          NO
38666            0          0          0          NO
38676            0          0          0          NO
38680            0          0          0          NO
38706            0          0          0          NO
38708            0          0          0          NO
38692            0          0          0          NO
38096            0          0          0          NO
38698            0          0          0          NO
38700            0          0          0          NO
38702            0          0          0          NO
38704            0          0          0          NO
38710            0          0          0          NO
38714            0          0          0          NO
38716            0          0          0          NO
38720            0          0          0          NO
38744            0          0          0          NO
38732            0          0          0          NO
38750            0          0          0          NO
38752            0          0          0          NO
99998            0          0          0          NO

[COORDINATES]
;;Node           X-Coord            Y-Coord
;;-------------- ------------------ ------------------
39003            151.75             166.38            
39069            133.40             150.70            
39071            126.89             130.98            
39075            116.24             110.25            
39077            105.59             88.50             
39083            95.53              67.26             
39091            78.36              49.06             
39119            61.20              30.35             
38931            -0.35              216.95            
39121            20.96              112.27            
39109            25.10              208.35            
39113            62.38              193.69            
39107            64.16              145.65            
39115            64.75              96.59             
39117            62.98              61.70             
39123            61.79              8.10              
39127            62.38              -13.14            
39129            62.38              -35.39            
39157            62.98              -56.13            
39133            66.53              -76.86            
39145            70.67              -97.59            
39163            74.81              -120.86           
39165            80.73              -144.62           
99999            98.49              -182.55           

[MAP]
DIMENSIONS -0.35 -182.55 151.75 216.95
Units      None

[REPORT]
INPUT            YES
SUBCATCHMENTS    ALL
NODES            ALL
LINKS            ALL



