;; SWMM5 .inp converted from XPSWMM .xp file
;; Generated by XPSWMM Card Reader
;; Source format: XP_CARD | Original title: Metropolitan Water District                       08/05 /94

[TITLE]
;;Project Title/Notes
Metropolitan Water District                       08/05 /94

[OPTIONS]
FLOW_UNITS           CFS
INFILTRATION         HORTON
FLOW_ROUTING         DYNWAVE
LINK_OFFSETS         DEPTH
MIN_SLOPE            0.0
ALLOW_PONDING        NO
SKIP_STEADY_STATE    NO
ROUTING_STEP         00:00:60
VARIABLE_STEP        0.75
INERTIAL_DAMPING     PARTIAL
NORMAL_FLOW_LIMITED  BOTH
MAX_TRIALS           50

[JUNCTIONS]
;;Name           Elev       MaxDepth   InitDepth  SurDepth   Aponded
;;-------------- ---------- ---------- ---------- ---------- ----------
401              1300.00    0          7.64       0          0
402              1300.00    0          5.09       0          0
403              1300.00    0          1.88       0          0
420              1300.00    0          67.38      0          0
404              1300.00    0          1.28       0          0
405              1300.00    0          20.77      0          0
406              1300.00    0          351.40     0          0
407              1300.00    0          55.39      0          0
408              1300.00    0          50.61      0          0
409              1300.00    0          142.76     0          0
410              1300.00    0          1.13       0          0
411              1300.00    0          16.13      0          0
412              1300.00    0          582.70     0          0
413              1300.00    0          8.86       0          0
414              1300.00    0          1.67       0          0
415              1300.00    0          184.87     0          0
416              1300.00    0          1.68       0          0
417              1300.00    0          320.89     0          0
418              1300.00    0          137.88     0          0
608              1200.00    0          212.12     0          0
609              1200.00    0          3.00       0          0
401B             1300.00    0          19.06      0          0
901              1300.00    0          68.50      0          0
902              1300.00    0          4.74       0          0
903              1300.00    0          47.04      0          0
702              1300.00    0          1.95       0          0
703              1300.00    0          209.69     0          0
704              1275.00    0          329.09     0          0
705              1275.00    0          439.61     0          0
706              1275.00    0          379.16     0          0
707              1275.00    0          445.14     0          0
708              1275.00    0          444.12     0          0
709              1275.00    0          423.12     0          0
710              1275.00    0          372.35     0          0
711              1275.00    0          351.83     0          0
712              1275.00    0          310.49     0          0
713              1275.00    0          269.74     0          0
714              1275.00    0          1.56       0          0
715              1275.00    0          251.02     0          0
716              1275.00    0          342.98     0          0
717              1275.00    0          300.43     0          0
718              1275.00    0          256.68     0          0
719              1275.00    0          236.13     0          0
720              1275.00    0          55.10      0          0
721              1200.00    0          3.89       0          0
722              1200.00    0          159.15     0          0
723              1200.00    0          41.59      0          0
306              1200.00    0          38.80      0          0
725              1200.00    0          6.73       0          0
999              1200.00    0          29.45      0          0
231              1200.00    0          54.19      0          0
727              1200.00    0          13.00      0          0

[CONDUITS]
;;Name           From             To               Length     Roughness  InOffset   OutOffset  InitFlow   MaxFlow
;;-------------- ---------------- ---------------- ---------- ---------- ---------- ---------- ---------- ----------
P401             401              402              9262.00    0.0130     1240.00    1239.00    0          0
P402             402              403              1473.00    0.0130     1239.00    1234.00    0          0
P403             403              420              2105.00    0.0130     1234.00    1160.00    0          0
P420             420              404              2105.00    0.0130     1160.00    1220.00    0          0
P404             404              405              842.00     0.0130     1220.00    1079.00    0          0
P405             405              406              4210.00    0.0130     1079.00    747.00     0          0
P406             406              407              9262.00    0.0130     747.00     1040.00    0          0
P407             407              408              14735.00   0.0130     1040.00    1040.00    0          0
P408             408              409              5683.00    0.0130     1040.00    946.00     0          0
P409             409              410              4210.00    0.0130     946.00     1077.00    0          0
P410             410              411              421.00     0.0130     1077.00    958.00     0          0
P411             411              412              19787.00   0.0130     958.00     385.00     0          0
P412             412              413              18524.00   0.0130     385.00     953.00     0          0
P413             413              414              6600.00    0.0130     953.00     953.00     0          0
P414             414              415              3368.00    0.0130     953.00     760.00     0          0
P415             415              416              842.00     0.0130     760.00     940.00     0          0
P416             416              417              6447.00    0.0130     940.00     523.00     0          0
P417             417              418              9868.00    0.0130     523.00     700.00     0          0
P418             418              608              9473.00    0.0130     700.00     620.00     0          0
P608             608              609              499.00     0.0130     620.00     827.00     0          0
P901             401B             901              1429.00    0.0130     1240.00    1190.00    0          0
P902             901              902              2727.00    0.0130     1190.00    1250.00    0          0
P903             902              903              3247.00    0.0130     1250.00    1206.00    0          0
P904             903              702              1755.00    0.0130     1206.00    1244.00    0          0
P702             702              703              2369.00    0.0130     1244.00    990.00     0          0
P703             703              704              10787.00   0.0130     990.00     863.00     0          0
P704             704              705              13421.00   0.0130     863.00     742.00     0          0
P705             705              706              3474.00    0.0130     742.00     800.00     0          0
P706             706              707              6316.00    0.0130     800.00     730.00     0          0
P707             707              708              947.00     0.0130     730.00     730.00     0          0
P708             708              709              1579.00    0.0130     730.00     750.00     0          0
P709             709              710              1263.00    0.0130     750.00     800.00     0          0
P710             710              711              947.00     0.0130     800.00     820.00     0          0
P711             711              712              2684.00    0.0130     820.00     860.00     0          0
P712             712              713              1579.00    0.0130     860.00     900.00     0          0
P713             713              714              1579.00    0.0130     900.00     1160.00    0          0
P714             714              715              947.00     0.0130     1160.00    900.00     0          0
P715             715              716              5527.00    0.0130     900.00     805.00     0          0
P716             716              717              1105.00    0.0130     805.00     847.00     0          0
P717             717              718              1579.00    0.0130     847.00     890.00     0          0
P718             718              719              1263.00    0.0130     890.00     910.00     0          0
P719             719              720              2369.00    0.0130     910.00     1090.00    0          0
P720             720              721              1263.00    0.0130     1090.00    1138.00    0          0
P721             721              722              3948.00    0.0130     1138.00    980.00     0          0
P722             722              723              16579.00   0.0130     980.00     1091.00    0          0
P723             723              306              14842.00   0.0130     1091.00    1090.00    0          0
P724             306              725              36633.00   0.0130     1090.00    1100.00    0          0
P725             725              999              13300.00   0.0130     1100.00    1070.00    0          0
P999             999              231              13300.00   0.0130     1070.00    1040.00    0          0
P726             231              727              3000.00    0.0130     1040.00    1080.00    0          0

[XSECTIONS]
;;Link           Shape        Geom1      Geom2      Geom3      Geom4      Barrels
;;-------------- ------------ ---------- ---------- ---------- ---------- ----------
P401             CIRCULAR     10.10      0          0          0          1
P402             CIRCULAR     9.00       0          0          0          1
P403             CIRCULAR     9.00       0          0          0          1
P420             CIRCULAR     9.00       0          0          0          1
P404             CIRCULAR     9.00       0          0          0          1
P405             CIRCULAR     9.00       0          0          0          1
P406             CIRCULAR     9.00       0          0          0          1
P407             CIRCULAR     9.00       0          0          0          1
P408             CIRCULAR     9.00       0          0          0          1
P409             CIRCULAR     9.00       0          0          0          1
P410             CIRCULAR     9.00       0          0          0          1
P411             CIRCULAR     9.00       0          0          0          1
P412             CIRCULAR     9.00       0          0          0          1
P413             CIRCULAR     10.10      0          0          0          1
P414             CIRCULAR     9.00       0          0          0          1
P415             CIRCULAR     9.00       0          0          0          1
P416             CIRCULAR     8.00       0          0          0          1
P417             CIRCULAR     8.00       0          0          0          1
P418             CIRCULAR     8.00       0          0          0          1
P608             CIRCULAR     8.00       0          0          0          1
P901             CIRCULAR     11.70      0          0          0          1
P902             CIRCULAR     11.70      0          0          0          1
P903             CIRCULAR     11.70      0          0          0          1
P904             CIRCULAR     11.70      0          0          0          1
P702             CIRCULAR     11.70      0          0          0          1
P703             CIRCULAR     10.50      0          0          0          1
P704             CIRCULAR     10.30      0          0          0          1
P705             CIRCULAR     10.50      0          0          0          1
P706             CIRCULAR     10.70      0          0          0          1
P707             CIRCULAR     9.70       0          0          0          1
P708             CIRCULAR     10.70      0          0          0          1
P709             CIRCULAR     10.80      0          0          0          1
P710             CIRCULAR     11.00      0          0          0          1
P711             CIRCULAR     11.20      0          0          0          1
P712             CIRCULAR     11.30      0          0          0          1
P713             CIRCULAR     11.50      0          0          0          1
P714             CIRCULAR     11.50      0          0          0          1
P715             CIRCULAR     11.00      0          0          0          1
P716             CIRCULAR     11.20      0          0          0          1
P717             CIRCULAR     11.30      0          0          0          1
P718             CIRCULAR     11.50      0          0          0          1
P719             CIRCULAR     11.50      0          0          0          1
P720             CIRCULAR     11.70      0          0          0          1
P721             CIRCULAR     11.70      0          0          0          1
P722             CIRCULAR     11.70      0          0          0          1
P723             CIRCULAR     12.70      0          0          0          1
P724             CIRCULAR     11.70      0          0          0          1
P725             CIRCULAR     11.70      0          0          0          1
P999             CIRCULAR     11.70      0          0          0          1
P726             CIRCULAR     11.70      0          0          0          1

[LOSSES]
;;Link           Inlet      Outlet     Average    Flap Gate
;;-------------- ---------- ---------- ---------- ----------
P401             0          0          0          NO
P402             0          0          0          NO
P403             0          0          0          NO
P420             0          0          0          NO
P404             0          0          0          NO
P405             0          0          0          NO
P406             0          0          0          NO
P407             0          0          0          NO
P408             0          0          0          NO
P409             0          0          0          NO
P410             0          0          0          NO
P411             0          0          0          NO
P412             0          0          0          NO
P413             0          0          0          NO
P414             0          0          0          NO
P415             0          0          0          NO
P416             0          0          0          NO
P417             0          0          0          NO
P418             0          0          0          NO
P608             0          0          0          NO
P901             0          0          0          NO
P902             0          0          0          NO
P903             0          0          0          NO
P904             0          0          0          NO
P702             0          0          0          NO
P703             0          0          0          NO
P704             0          0          0          NO
P705             0          0          0          NO
P706             0          0          0          NO
P707             0          0          0          NO
P708             0          0          0          NO
P709             0          0          0          NO
P710             0          0          0          NO
P711             0          0          0          NO
P712             0          0          0          NO
P713             0          0          0          NO
P714             0          0          0          NO
P715             0          0          0          NO
P716             0          0          0          NO
P717             0          0          0          NO
P718             0          0          0          NO
P719             0          0          0          NO
P720             0          0          0          NO
P721             0          0          0          NO
P722             0          0          0          NO
P723             0          0          0          NO
P724             0          0          0          NO
P725             0          0          0          NO
P999             0          0          0          NO
P726             0          0          0          NO

[INFLOWS]
;;Node           Constituent  Time Series      Type     Mfactor  Sfactor  Baseline Pattern
;;-------------- ------------ ---------------- -------- -------- -------- -------- --------
401              FLOW         ""               FLOW     1.0      1.0      225.00
401B             FLOW         ""               FLOW     1.0      1.0      500.00

[COORDINATES]
;;Node           X-Coord            Y-Coord
;;-------------- ------------------ ------------------
401              421.17             116.80            
402              447.08             240.95            
403              482.84             231.14            
420              508.75             232.78            
404              540.58             242.58            
405              566.49             288.31            
406              541.17             116.80            
407              561.17             116.80            
408              581.17             116.80            
409              601.17             116.80            
410              621.17             116.80            
411              641.17             116.80            
412              661.17             116.80            
413              681.17             116.80            
414              701.17             116.80            
415              721.17             116.80            
416              741.17             116.80            
417              761.17             116.80            
418              781.17             116.80            
608              801.17             116.80            
609              821.17             116.80            
401B             417.21             118.67            
901              419.60             118.76            
902              423.18             117.57            
903              416.16             120.82            
702              415.12             119.23            
703              422.27             121.66            
704              412.79             118.64            
705              416.13             123.07            
706              423.67             120.65            
707              411.35             119.85            
708              416.73             115.20            
709              421.94             115.08            
710              412.77             112.47            
711              414.42             122.28            
712              419.92             113.08            
713              423.23             112.09            
714              413.42             119.50            
715              418.32             118.24            
716              420.30             116.44            
717              417.62             117.19            
718              419.98             113.06            
719              420.10             120.78            
720              411.58             121.95            
721              414.67             122.57            
722              411.78             115.00            
723              423.37             112.72            
306              415.02             119.02            
725              417.32             121.40            
999              411.62             119.09            
231              421.75             114.25            
727              412.68             241.04            

[MAP]
DIMENSIONS 411.35 112.09 821.17 288.31
Units      None

[REPORT]
INPUT            YES
SUBCATCHMENTS    ALL
NODES            ALL
LINKS            ALL



