;; SWMM5 .inp converted from XPSWMM .xp file
;; Generated by XPSWMM Card Reader
;; Source format: XP_CARD | Original title: Owl Head WPCP, Brooklyn Highway Datum

[TITLE]
;;Project Title/Notes
Owl Head WPCP, Brooklyn Highway Datum

[OPTIONS]
FLOW_UNITS           CFS
INFILTRATION         HORTON
FLOW_ROUTING         DYNWAVE
LINK_OFFSETS         DEPTH
MIN_SLOPE            0.0
ALLOW_PONDING        NO
SKIP_STEADY_STATE    NO
ROUTING_STEP         00:00:07
VARIABLE_STEP        0.75
INERTIAL_DAMPING     PARTIAL
NORMAL_FLOW_LIMITED  BOTH
MAX_TRIALS           50
HEAD_TOLERANCE       0.0033

[JUNCTIONS]
;;Name           Elev       MaxDepth   InitDepth  SurDepth   Aponded
;;-------------- ---------- ---------- ---------- ---------- ----------
S-04             13.00      0          0          0          0
S-05             10.05      0          0          0          0
S-06             7.50       0          0          0          0
S-07             10.05      0          0          0          0
S-09             11.00      0          0          0          0
S-R3             12.50      0          0          0          0
S-12             10.00      0          0          0          0
S-R4             11.00      0          0          0          0
S-R5             10.00      0          0          0          0
JC               10.00      0          0          0          0
R-6D             10.00      0          0          0          0
N-05             17.50      0          0          0          0
N-04             18.00      0          0          0          0
R7Z              13.00      0          0          0          0
WW-OH            10.00      0          0          0          0
DISCH            10.00      0          0          0          0
S-R1             17.00      0          0          0          0
TG-1             17.00      0          0          0          0
R-2              11.00      0          0          0          0
TG-2             11.00      0          0          0          0
CS-2             11.00      0          0          0          0
R-3              12.50      0          0          0          0
TG-3             12.50      0          0          0          0
CS-3             12.50      0          0          0          0
R-4              11.00      0          0          0          0
TG-4             11.00      0          0          0          0
CS-4             11.00      0          0          0          0
R-5              8.70       0          0          0          0
TG-5             8.70       0          0          0          0
CS-5             8.70       0          0          0          0
R-6C             14.00      0          0          0          0
R-6              10.00      0          0          0          0
TG-6C            14.00      0          0          0          0
R-9C-Ta          45.00      0          0          0          0
9C-04            41.00      0          0          0          0
9C-05            40.00      0          0          0          0
9C-06            38.00      0          0          0          0
9C-07            36.00      0          0          0          0
9C-08            34.00      0          0          0          0
9C-09            32.00      0          0          0          0
9C-10            30.00      0          0          0          0
9C-11            28.00      0          0          0          0
9C-12            26.00      0          0          0          0
9C-13            24.00      0          0          0          0
9C-14            22.00      0          0          0          0
9C-15            20.00      0          0          0          0
9C-16            18.00      0          0          0          0
CS-7A            13.20      0          0          0          0
R-7A             13.20      0          0          0          0
R-7              13.30      0          0          0          0
TG-7             13.30      0          0          0          0
CS-7C            13.40      0          0          0          0
R-7C             13.40      0          0          0          0
CS-7B            13.00      0          0          0          0
R-7B             13.40      0          0          0          0
R-9a             25.00      0          0          0          0
VFM              25.00      0          0          0          0
TG-9AT           20.00      0          0          0          0
TG-9ATa          20.00      0          0          0          0
R-9AB            20.00      0          0          0          0
TG-9AB           20.00      0          0          0          0
TG-9A            20.00      0          0          0          0
VDS              35.00      0          0          0          0
CS-9B            30.00      0          0          0          0
R-9B             30.00      0          0          0          0
R-9Ba            25.00      0          0          0          0
9B-02            25.00      0          0          0          0
9B-04            25.00      0          0          0          0
CS-09A-T         25.00      0          0          0          0
9CB-05           29.00      0          0          0          0
9CB-07           25.00      0          0          0          0
9CB-09           25.00      0          0          0          0
CS-09A-B         25.00      0          0          0          0
CS-09C-T         50.00      0          0          0          0
R-9C-T           50.00      0          0          0          0
CS-09C-B         50.00      0          0          0          0
R-9C-B           45.00      0          0          0          0
CS-8B            45.00      0          0          0          0
9CB-01           45.00      0          0          0          0
9CB-03           35.00      0          0          0          0
9CT-01           45.00      0          0          0          0
9CT-03           35.00      0          0          0          0
N-01             19.00      0          0          0          0
N-02             21.80      0          0          0          0
N-03             18.00      0          0          0          0
R6CZ             14.00      0          0          0          0
CS-6A            14.00      0          0          0          0
R-6A             14.00      0          0          0          0
CS-6B            14.00      0          0          0          0
R-6B             14.00      0          0          0          0
N-05Z            12.00      0          0          0          0
N-06             13.50      0          0          0          0
S-17             8.70       0          0          0          0
S-19             15.00      0          0          0          0
R5Z              10.00      0          0          0          0
R4Z              11.00      0          0          0          0
S-11             9.00       0          0          0          0
R3Z              12.50      0          0          0          0
R2Z              11.00      0          0          0          0
S-03             9.00       0          0          0          0
R-1              17.00      0          0          0          0
9A-01            24.50      0          0          0          0
9A-02            24.00      0          0          0          0
9A-03            23.50      0          0          0          0
CS-01A           22.50      0          0          0          0
CS-01B           22.00      0          0          0          0
CS-01C           21.50      0          0          0          0
CS-01D           21.00      0          0          0          0
9C-01            44.00      0          0          0          0
9C-02            43.00      0          0          0          0
9C-03            42.00      0          0          0          0
CS-6C            16.00      0          0          0          0
CS-V             9.00       0          0          0          0
R-V              22.00      0          0          0          0
TG-V             22.00      0          0          0          0
R-9C-Ba          45.00      0          0          0          0
9CB-02           40.00      0          0          0          0
9CT-02           40.00      0          0          0          0
9CT-04           30.00      0          0          0          0
9CB-04           30.00      0          0          0          0
9B-01            25.00      0          0          0          0
9CB-06           27.00      0          0          0          0
9B-03            25.00      0          0          0          0
9CB-08           25.00      0          0          0          0
9CB-10           25.00      0          0          0          0
9B-05            25.00      0          0          0          0
R-9D-T           50.00      0          0          0          0
R-9C-D           50.00      0          0          0          0
CS-01            23.00      0          0          0          0
VDSa             7.88       0          0          0          0
557              7.88       0          0          0          0
V-FM             20.00      0          0          0          0
CS-01E           20.50      0          0          0          0
CS-01F           20.00      0          0          0          0
CS-01G           19.50      0          0          0          0
CS-01H           19.00      0          0          0          0
CS-01I           18.50      0          0          0          0
CS-01J           18.00      0          0          0          0
CS-01K           17.50      0          0          0          0
SE-133           8.50       0          0          0          0
SE-133           26.00      0          0          0          0
SE-133           9.76       0          0          0          0
SE-133           12.16      0          0          0          0
1233             6.16       0          0          0          0

[OUTFALLS]
;;Name           Elev       Type       Stage      Gated
;;-------------- ---------- ---------- ---------- -----
RW-OH            10.00      FREE                  NO
RW-1             7.00       FREE                  NO
RW-2             11.00      FREE                  NO
RW-3             12.50      FREE                  NO
RW-4             11.00      FREE                  NO
RW-5             8.70       FREE                  NO
RW-6C            14.00      FREE                  NO
RW-7             13.30      FREE                  NO
RW-9A            20.00      FREE                  NO
RW-V             22.00      FREE                  NO

[STORAGE]
;;Name           Elev       MaxDepth   InitDepth  Shape      Curve/Params
;;-------------- ---------- ---------- ---------- ---------- ----------
RVZ              22.00      0          0          FUNCTIONAL 1000.00 0          0
WW-V             7.88       0          0          FUNCTIONAL 2100.00 0          0

[CONDUITS]
;;Name           From             To               Length     Roughness  InOffset   OutOffset  InitFlow   MaxFlow
;;-------------- ---------------- ---------------- ---------- ---------- ---------- ---------- ---------- ----------
102              S-04             S-05             600.00     0.0140     -7.87      -8.28      0          0
103              S-05             S-06             583.51     0.0140     -8.28      -8.68      0          0
104              S-06             S-07             591.40     0.0140     -8.68      -9.08      0          0
200              S-07             S-09             646.46     0.0140     -9.08      -9.52      0          0
201              S-09             S-R3             421.99     0.0231     -9.52      -10.31     0          0
300              S-R3             S-11             430.01     0.0140     -10.31     -10.60     0          0
302              S-12             S-R4             639.44     0.0140     -11.25     -11.69     0          0
400              S-R4             S-R5             846.75     0.0140     -11.69     -12.23     0          0
502              Node_502         Node_1017924     354.98     0.0140     -13.20     -13.44     0          0
600              R-6D             N-05Z            419.37     0.0140     -12.70     -12.91     0          0
705              N-05             R-6D             653.08     0.0379     -10.27     -12.70     0          0
704              N-04             N-05             876.33     0.0140     -9.82      -10.27     0          0
700              R7Z              N-01             754.38     0.0140     -8.50      -8.89      0          0
INLET            JC               WW-OH            300.00     0.0235     -13.44     -15.25     0          0
OUTFALL          DISCH            RW-OH            300.00     0.0140     0          -0.30      0          0
100              S-R1             S-03             643.78     0.0140     -7.09      -7.53      0          0
190              TG-1             RW-1             300.00     0.0140     -4.96      -5.26      0          0
250              Node_250         Node_1022918     300.00     0.0127     -1.32      -9.08      0          0
290              TG-2             RW-2             300.00     0.0140     0.21       -2.79      0          0
280              CS-2             R-2              300.00     0.0140     2.80       -0.20      0          0
351              Node_351         Node_1021920     300.00     0.0148     -4.75      -10.31     0          0
390              TG-3             RW-3             300.00     0.0140     -4.18      -4.48      0          0
380              CS-3             R-3              300.00     0.0140     -3.78      -4.08      0          0
451              Node_451         Node_1019922     300.00     0.0184     -5.20      -11.69     0          0
490              TG-4             RW-4             300.00     0.0140     -4.50      -4.80      0          0
480              CS-4             R-4              300.00     0.0140     -4.20      -4.50      0          0
551              Node_551         Node_1018923     300.00     0.0075     -4.50      -12.23     0          0
590              TG-5             RW-5             300.00     0.0140     -2.40      -2.70      0          0
580              CS-5             R-5              300.00     0.0140     0.70       -2.30      0          0
650C             Node_650         Node_1009952     300.00     0.0088     -5.70      -8.90      0          0
690C             TG-6C            RW-6C            300.00     0.0140     -3.05      -3.35      0          0
900C             R-9C-Ta          9C-01            880.00     0.0140     5.16       4.59       0          0
904C             9C-04            9C-05            790.00     0.0140     3.19       2.71       0          0
905C             9C-05            9C-06            790.00     0.0140     2.71       2.22       0          0
906C             9C-06            9C-07            530.00     0.0140     2.22       1.90       0          0
907C             9C-07            9C-08            920.00     0.0140     1.90       1.34       0          0
908C             9C-08            9C-09            440.00     0.0140     1.34       1.07       0          0
909C             9C-09            9C-10            790.00     0.0140     1.07       0.58       0          0
910C             9C-10            9C-11            790.00     0.0140     0.58       0.10       0          0
911C             9C-11            9C-12            645.00     0.0140     0.10       -0.28      0          0
912C             9C-12            9C-13            645.00     0.0140     -0.28      -0.67      0          0
913C             9C-13            9C-14            785.00     0.0140     -0.67      -1.14      0          0
914C             9C-14            9C-15            800.00     0.0140     -1.14      -1.62      0          0
915C             9C-15            9C-16            790.00     0.0140     -1.62      -2.09      0          0
916C             9C-16            CS-6C            750.00     0.0140     -2.09      -2.57      0          0
780A             CS-7A            R-7A             300.00     0.0150     -6.30      -6.60      0          0
750A             R-7A             R-7              300.00     0.0091     -6.60      -6.75      0          0
780C             CS-7C            R-7C             300.00     0.0150     3.75       0.75       0          0
750C             R-7C             R-7B             300.00     0.0055     0.75       -3.00      0          0
780B             CS-7B            R-7B             300.00     0.0150     -2.70      -3.00      0          0
790A             TG-7             RW-7             300.00     0.0150     -5.01      -5.31      0          0
900A             R-9a             9A-01            880.00     0.0140     2.32       1.78       0          0
V01              VFM              R-9a             70.00      0.0140     2.38       2.32       0          0
991AT            TG-9AT           TG-9ATa          995.00     0.0140     5.39       3.97       0          0
991AB            R-9AB            TG-9AB           995.00     0.0150     -6.11      -7.61      0          0
992AT            TG-9ATa          TG-9A            350.00     0.0140     3.97       -8.03      0          0
992AB            TG-9AB           TG-9A            1000.00    0.0088     -7.61      -8.03      0          0
990A             TG-9A            RW-9A            1000.00    0.0091     -8.03      -8.48      0          0
377.1            VDS              VFM              2300.00    0.0140     3.78       2.38       0          0
980B             CS-9B            R-9B             500.00     0.0140     16.05      13.55      0          0
950B             R-9B             R-9Ba            500.00     0.0140     13.55      13.42      0          0
900B             R-9Ba            9B-01            784.00     0.0140     13.42      12.28      0          0
902B             9B-02            9B-03            816.00     0.0150     11.14      9.46       0          0
904B             9B-04            9B-05            645.00     0.0150     7.78       7.06       0          0
980A-T           CS-09A-T         R-9a             810.00     0.0150     6.33       3.20       0          0
904CB            9CB-05           9CB-06           674.00     0.0150     1.92       0.56       0          0
906CB            9CB-07           9CB-08           757.50     0.0140     -0.81      -2.02      0          0
19209            9CB-09           9CB-10           820.00     0.0140     -3.23      -4.20      0          0
980A-B           CS-09A-B         R-9AB            810.00     0.0150     -5.17      -6.11      0          0
980CT            ?                TG-9AT           500.00     0.0140     27.10      20.00      0          0
950CT            R-9C-T           R-9C-Ta          500.00     0.0140     20.00      5.16       0          0
980CB            ?                TG-9AT           500.00     0.0140     10.27      5.88       0          0
950CB            ?                CS-5             640.00     0.0150     5.88       5.52       0          0
800B             Node_800         Node_10011000    1000.00    0.0140     10.88      5.88       0          0
900CB            Node_900         Node_10021043    810.00     0.0140     8.25       6.67       0          0
902-CB           Node_902         Node_10031046    810.00     0.0140     5.08       3.50       0          0
900CT            Node_900         Node_10041044    810.00     0.0140     19.77      18.18      0          0
902CT            Node_902         Node_10051045    810.00     0.0150     16.60      15.01      0          0
701              Node_701         Node_10061007    777.55     0.0140     -8.89      -9.29      0          0
702              Node_702         Node_10071008    790.05     0.0140     -9.29      -9.69      0          0
703              Node_703         Node_1008927     250.44     0.0140     -9.69      -9.82      0          0
680A             Node_680         Node_10101011    300.00     0.0140     7.00       4.00       0          0
650A             Node_650         Node_1011951     300.00     0.0088     4.00       -5.70      0          0
W-6A             ?                Node_1011953     300.00     0.0062     4.00       -3.05      0          0
680B             Node_680         Node_10121013    300.00     0.0140     4.75       1.75       0          0
W-6B             ?                Node_1013953     300.00     0.0138     1.75       -3.05      0          0
650B             Node_650         Node_1013952     300.00     0.0150     1.75       -8.90      0          0
601              Node_601         Node_10141015    561.28     0.0140     -12.92     -13.21     0          0
602              Node_602         Node_1015924     400.00     0.0159     -13.21     -13.44     0          0
500              S-R5             S-17             700.28     0.0140     -12.23     -12.75     0          0
501              Node_501         Node_10161017    654.67     0.0140     -12.75     -13.20     0          0
301              Node_301         Node_1020921     961.57     0.0140     -10.60     -11.25     0          0
101              Node_101         Node_1023915     514.02     0.0140     -7.53      -7.87      0          0
901A             Node_901         Node_10251026    790.00     0.0140     1.78       1.29       0          0
902A             Node_902         Node_10261027    510.00     0.0140     1.29       0.97       0          0
903A             Node_903         Node_10271055    480.00     0.0140     0.97       0.67       0          0
180A             Node_180         Node_10551028    765.00     0.0140     0.67       0.18       0          0
180B             Node_180         Node_10281029    780.00     0.0140     0.18       -0.32      0          0
180C             Node_180         Node_10291030    800.00     0.0140     -0.32      -0.84      0          0
180D             Node_180         Node_10301031    520.00     0.0140     -0.84      -1.19      0          0
180E             Node_180         Node_10311059    770.00     0.0140     -1.19      -1.69      0          0
901C             Node_901         Node_10321033    785.00     0.0140     4.59       4.11       0          0
902C             Node_902         Node_10331034    900.00     0.0140     4.11       3.59       0          0
903C             Node_903         Node_1034956     675.00     0.0140     3.59       3.19       0          0
680C             Node_680         Node_1035951     660.00     0.0150     -2.57      -5.70      0          0
V-80             Node_80          Node_10361037    200.00     0.0140     -7.23      -7.50      0          0
V-90             Node_90          Node_10391040    400.00     0.0140     -7.50      -8.04      0          0
V-51             Node_51          Node_10381041    60.00      0.0120     -7.50      -7.55      0          0
951CB            ?                R-6C             640.00     0.0150     5.52       5.16       0          0
901CB            Node_901         Node_10431003    810.00     0.0140     6.67       5.08       0          0
901CT            Node_901         Node_10441005    810.00     0.0140     18.18      16.60      0          0
903-CT           Node_903         Node_1045989     810.00     0.0150     15.01      13.42      0          0
903-CB           Node_903         Node_1046993     810.00     0.0140     3.50       1.92       0          0
901B             Node_901         Node_1047990     784.00     0.0140     12.28      11.14      0          0
905CB            Node_905         Node_1048994     674.00     0.0150     0.56       -0.81      0          0
903B             Node_903         Node_1049991     816.00     0.0150     9.46       7.78       0          0
907CB            Node_907         Node_1050995     757.50     0.0140     -2.02      -3.23      0          0
909CB            Node_909         Node_1051996     820.00     0.0140     -4.20      -5.17      0          0
905B             Node_905         Node_1052992     645.00     0.0150     7.06       6.33       0          0
981CT            CS-09C-T         R-9D-T           500.00     0.0140     31.10      27.10      0          0
980CD            CS-09C-B         R-9C-D           500.00     0.0140     14.27      10.27      0          0
30"              ?                Node_10571058    5855.00    0.0120     3.46       8.54       0          0
78"              Node_78          Node_1058986     1500.00    0.0140     5.06       3.78       0          0
180F             Node_180         Node_10591060    770.00     0.0140     -1.69      -2.19      0          0
180G             Node_180         Node_10601061    920.00     0.0140     -2.19      -2.79      0          0
180H             Node_180         Node_10611062    620.00     0.0140     -2.79      -3.20      0          0
180I             Node_180         Node_10621063    390.00     0.0140     -3.20      -3.40      0          0
180J             Node_180         Node_10631064    690.00     0.0140     -3.40      -3.85      0          0
180K             Node_180         Node_10641065    660.00     0.0140     -3.85      -4.38      0          0
180L             Node_180         Node_10651024    830.00     0.0140     -4.38      -4.80      0          0
SE-133           Node_133         Node_10661067    885.00     0.0140     -3.63      -4.04      0          0
SE-133           Node_133         Node_10671068    1422.00    0.0140     -4.04      -4.68      0          0
SE-133           Node_133         Node_10681069    1351.00    0.0140     -4.68      -5.28      0          0
SE-133           Node_133         Node_1069932     1346.00    0.0140     -5.28      -5.85      0          0
60"              Node_60          Node_12331066    17400.00   0.0120     -2.84      -3.63      0          0
1236             ?                ?                800.00     0.0140     3.04       -2.84      0          0

[ORIFICES]
;;Name           From             To               Type       Offset     Qcoeff     Gated    CloseTime
;;-------------- ---------------- ---------------- ---------- ---------- ---------- -------- ----------
232.1            WW-OH            DISCH            SIDE       -14.13     0.650      NO       0
335.1            R-7B             R-7              SIDE       1.00       0.650      NO       0
338.1            R-7              R7Z              SIDE       -6.77      0.650      NO       0
SG-R6            R-6              R-6D             SIDE       0          0.650      NO       0
443.1            R-6C             R6CZ             SIDE       0          0.650      NO       0
SG-5             R-5              R5Z              SIDE       0          0.650      NO       0
SG-4             R-4              R4Z              SIDE       0          0.650      NO       0
SG-3             R-3              R3Z              SIDE       0          0.650      NO       0
SG-2             R-2              R2Z              SIDE       0          0.650      NO       0
SG-1             ?                Node_1024932     SIDE       0          0.650      NO       0
OF-V             ?                Node_10371038    SIDE       0          0.650      NO       0

[WEIRS]
;;Name           From             To               Type       CrestHt    Qcoeff     Gated    EndCon   EndCoeff   Surcharge
;;-------------- ---------------- ---------------- ---------- ---------- ---------- -------- -------- ---------- ----------
W-1              ?                Node_1024933     TRANSVERSE -0.60      1.840      NO       0        0          YES
W-2              R-2              TG-2             TRANSVERSE 3.00       1.840      NO       0        0          YES
W-3              R-3              TG-3             TRANSVERSE -2.40      1.840      NO       0        0          YES
W-4              R-4              TG-4             TRANSVERSE -3.00      1.840      NO       0        0          YES
W-5              R-5              TG-5             TRANSVERSE -1.10      1.840      NO       0        0          YES
W-9A-BTM         VFM              R-9AB            V-NOTCH    5.33       1.840      NO       0        0          YES
W-9A-TOP         R-9a             TG-9AT           V-NOTCH    7.60       1.840      NO       0        0          YES
W-9B             R-9B             9CB-05           V-NOTCH    16.35      1.840      NO       0        0          YES
427.1            R-9C-T           9CT-01           V-NOTCH    23.00      1.840      NO       0        0          YES
W-9C-BTM         ?                Node_10001002    V-NOTCH    10.68      1.840      NO       0        0          YES
W-6C             R-6C             TG-6C            TRANSVERSE -2.00      1.840      NO       0        0          YES
W-7A             R-7A             TG-7             TRANSVERSE -3.50      1.840      NO       0        0          YES
W-7C             R-7C             TG-7             TRANSVERSE 2.50       1.840      NO       0        0          YES
W-7B             R-7B             TG-7             TRANSVERSE 1.00       1.840      NO       0        0          YES
W-V              ?                Node_10371039    TRANSVERSE -3.50      1.840      NO       0        0          YES

[PUMPS]
;;Name           From             To               PumpCurve  Status   Startup    Shutoff
;;-------------- ---------------- ---------------- ---------- -------- ---------- ----------
383.1            ?                Node_10411057    PC_383.1   ON       -14.50     -15.00    
383.1            ?                Node_10411056    PC_383.1   ON       -14.00     -15.00    

[CURVES]
;;Name           Type       X-Value    Y-Value
;;-------------- ---------- ---------- ----------
PC_383.1         Pump2      0          0
;
PC_383.1         Pump2      0          0
;

[XSECTIONS]
;;Link           Shape        Geom1      Geom2      Geom3      Geom4      Barrels
;;-------------- ------------ ---------- ---------- ---------- ---------- ----------
102              RECT_CLOSED  7.39       8.00       0          0          1
103              RECT_CLOSED  7.39       8.00       0          0          1
104              RECT_CLOSED  7.39       8.00       0          0          1