;; SWMM5 .inp converted from XPSWMM .xp file
;; Generated by XPSWMM Card Reader
;; Source format: XP_CARD | Original title: (none)

[TITLE]
;;Project Title/Notes
Converted from XPSWMM .xp file

[OPTIONS]
FLOW_UNITS           CFS
INFILTRATION         HORTON
FLOW_ROUTING         DYNWAVE
LINK_OFFSETS         DEPTH
MIN_SLOPE            0.0
ALLOW_PONDING        NO
SKIP_STEADY_STATE    NO
ROUTING_STEP         00:00:30
VARIABLE_STEP        0.75
INERTIAL_DAMPING     PARTIAL
NORMAL_FLOW_LIMITED  BOTH
MAX_TRIALS           75

[JUNCTIONS]
;;Name           Elev       MaxDepth   InitDepth  SurDepth   Aponded
;;-------------- ---------- ---------- ---------- ---------- ----------
A07              15.75      0          0          0          0
A08              15.35      0          0          0          0
A03              15.00      0          0          0          0
A29              15.50      0          0          0          0
B03              15.80      0          0          0          0
B05              15.50      0          0          0          0
B06              15.40      0          0          0          0
B11              15.40      0          0          0          0
B12              15.40      0          0          0          0
B13              16.00      0          0          0          0
B16              16.00      0          0          0          0
B18              16.00      0          0          0          0
B20              16.00      0          0          0          0
B21              16.00      0          0          0          0
B22              17.30      0          0          0          0
B10              15.10      0          0          0          0
B25              16.00      0          0          0          0
B26              16.00      0          0          0          0
B28              16.00      0          0          0          0
B29              14.00      0          0          0          0
B30              14.00      0          0          0          0
B31              14.00      0          0          0          0
A125             14.50      0          0          0          0
A132             14.50      0          0          0          0
A105             15.00      0          0          0          0
A118             17.00      0          0          0          0
A107             15.00      0          0          0          0
A111             15.00      0          0          0          0
C01              14.00      0          0          0          0
C03              14.00      0          0          0          0
C04              14.00      0          0          0          0
C06              14.00      0          0          0          0
C29              14.00      0          0          0          0
C107             18.20      0          0          0          0
C14              18.20      0          1.40       0          0
C17              16.50      0          0          0          0
C19              16.50      0          0          0          0
C20              16.50      0          0          0          0
C21              16.50      0          0          0          0
C25              15.50      0          0          0          0
C26              14.00      0          0          0          0
C27              14.00      0          0          0          0
C28              14.00      0          0          0          0
C30              14.00      0          0          0          0
C31              15.00      0          0          0          0
C33              14.00      0          0          0          0
C34              14.30      0          0          0          0
C35              14.00      0          0          0          0
C106             16.00      0          0          0          0
C05              15.00      0          0          0          0
C112             15.00      0          0          0          0
A27              16.00      0          0          0          0
A26              15.00      0          0          0          0
A10              15.44      0          0          0          0
A16              15.43      0          0          0          0
A17              15.00      0          0          0          0
A18              15.00      0          0          0          0
A20              15.00      0          0          0          0
A22              15.25      0          0          0          0
A123             16.00      0          0          0          0
A129             16.00      0          0          0          0
A127             16.00      0          0          0          0
A121             16.00      0          0          0          0
A131             16.00      0          0          0          0

[STORAGE]
;;Name           Elev       MaxDepth   InitDepth  Shape      Curve/Params
;;-------------- ---------- ---------- ---------- ---------- ----------
A06              15.84      -0.44      0          FUNCTIONAL 0 0          0
A02              15.00      0          0          FUNCTIONAL 0 0          0
A04              15.10      -0.10      0          FUNCTIONAL 0 0          0
B01              15.50      0          0          FUNCTIONAL 0 0          0
B02              15.00      0          0          FUNCTIONAL 0 0          0
B04              15.50      0          0          FUNCTIONAL 0 0          0
B15              16.00      0          0          FUNCTIONAL 0 0          0
B17              16.00      0          0          FUNCTIONAL 0 0          0
B19              16.00      0          0          FUNCTIONAL 0 0          0
B07              16.00      0          0          FUNCTIONAL 0 0          0
B08              16.30      -0.30      0          FUNCTIONAL 0 0          0
B09              15.00      0          0          FUNCTIONAL 0 0          0
B23              16.30      -0.30      0          FUNCTIONAL 0 0          0
B24              16.10      -0.10      0          FUNCTIONAL 0 0          0
B27              16.10      -0.10      0          FUNCTIONAL 0 0          0
C101             15.00      0          0          FUNCTIONAL 0 0          0
A120             16.00      0          0          FUNCTIONAL 0 0          0
A124             16.00      0          0          FUNCTIONAL 0 0          0
A122             16.00      0          0          FUNCTIONAL 0 0          0
A126             16.00      0          0          FUNCTIONAL 0 0          0
A130             16.00      0          0          FUNCTIONAL 0 0          0
A128             16.00      0          0          FUNCTIONAL 0 0          0
A119             15.00      0          0          FUNCTIONAL 0 0          0
A115             16.00      0          0          FUNCTIONAL 0 0          0
A116             16.00      0          0          FUNCTIONAL 0 0          0
A101             16.00      0          0          FUNCTIONAL 0 0          0
A102             16.00      0          0          FUNCTIONAL 0 0          0
A103             16.00      0          0          FUNCTIONAL 0 0          0
A104             16.00      0          0          FUNCTIONAL 0 0          0
A106             16.00      0          0          FUNCTIONAL 0 0          0
Golf             16.00      -1.00      0          FUNCTIONAL 0 0          0
A110             16.00      0          0          FUNCTIONAL 0 0          0
A108             16.00      0          0          FUNCTIONAL 0 0          0
A112             15.00      0          0          FUNCTIONAL 0 0          0
A113             15.00      0          0          FUNCTIONAL 0 0          0
A114             16.00      0          0          FUNCTIONAL 0 0          0
C02              14.00      0          0          FUNCTIONAL 0 0          0
C115             14.00      0          0          FUNCTIONAL 0 0          0
C113             18.20      -2.20      0          FUNCTIONAL 0 0          0
C23              18.00      0          0          FUNCTIONAL 0 0          0
C16              16.50      0          0          FUNCTIONAL 0 0          0
C18              16.50      0          0          FUNCTIONAL 0 0          0
C22              16.50      0          0          FUNCTIONAL 0 0          0
C24              18.00      0          0          FUNCTIONAL 0 0          0
C32              14.00      0          0          FUNCTIONAL 0 0          0
C114             14.00      0          0          FUNCTIONAL 0 0          0
C108             16.00      0          0          FUNCTIONAL 0 0          0
C102             16.00      -1.00      1.20       FUNCTIONAL 0 0          0
C103             16.00      -1.00      1.30       FUNCTIONAL 0 0          0
C111             16.05      -0.05      1.50       FUNCTIONAL 0 0          0
C110             16.50      -0.50      1.50       FUNCTIONAL 0 0          0
C109             16.00      0          1.50       FUNCTIONAL 0 0          0
C104             16.00      -1.00      1.40       FUNCTIONAL 0 0          0
C105             16.00      -1.00      1.40       FUNCTIONAL 0 0          0
A28              15.50      0          0          FUNCTIONAL 0 0          0
A30              16.40      0          0          FUNCTIONAL 0 0          0
A31              16.40      0          0          FUNCTIONAL 0 0          0
A09              15.31      -0.31      0          FUNCTIONAL 0 0          0
A19              15.00      0          0          FUNCTIONAL 0 0          0
A21              15.00      0          0          FUNCTIONAL 0 0          0
A23              15.21      -0.21      0          FUNCTIONAL 0 0          0
A24              15.00      0          0          FUNCTIONAL 0 0          0
A25              15.00      0          0          FUNCTIONAL 0 0          0
A109             16.00      0          0          FUNCTIONAL 0 0          0
A117             16.00      -1.00      0          FUNCTIONAL 0 0          0

[CONDUITS]
;;Name           From             To               Length     Roughness  InOffset   OutOffset  InitFlow   MaxFlow
;;-------------- ---------------- ---------------- ---------- ---------- ---------- ---------- ---------- ----------
A06C             A06              A07              550.00     0          7.50       7.42       0          0
A08C             A08              A09              770.00     0          6.43       6.66       0          0
A03C             A03              A04              270.00     0          7.28       7.25       0          0
A04C             A04              A110             750.00     0          7.25       7.20       0          0
B11C             B11              B12              360.00     0          4.56       3.91       0          0
B13C             B13              B15              80.00      0          3.87       3.80       0          0
B17C             B17              B18              700.00     0.0420     5.00       4.25       0          0
B21C             B21              B22              400.00     0.0550     3.66       3.36       0          0
B19C             B19              B20              500.00     0.0420     4.00       3.68       0          0
B16C             B16              B22              310.00     0          3.82       3.36       0          0
B07C             B07              B08              600.00     0          6.45       5.76       0          0
B22C             B22              B23              320.00     0          3.36       2.36       0          0
B23C             B23              B24              320.00     0          2.36       2.09       0          0
B24C             B24              B25              190.00     0          2.09       1.54       0          0
B26C             B26              B27              1050.00    0          1.36       0.50       0          0
B28C             B28              B29              130.00     0          1.52       0.46       0          0
B29P             B29              B30              35.00      0.0140     0.46       0.53       0          0
B27p1            B27p2            B27p3            42.40      0.0140     0.60       0.99       0          0
B25P1            B25P2            B25P3            65.20      0.0140     1.66       1.47       0          0
B15P1            B15P2            B15P3            65.00      0.0140     4.01       4.00       0          0
B12P1            B12P2            B12R             43.10      0.0140     3.91       3.87       0          0
B08C             B08              B09              1300.00    0          5.76       4.26       0          0
A07P1            A07R             A08              90.00      0.0140     7.42       6.43       0          0
B30C             B30              B31              150.00     0          0.53       0.41       0          0
B05P1            B05R             B06              550.00     0.0140     5.61       4.76       0          0
B06P1            B06R             B10              400.00     0.0140     4.76       4.14       0          0
B10P1            B10R             B11              500.00     0.0140     4.14       3.37       0          0
B09P1            B09R             B10              150.00     0.0140     4.26       4.14       0          0
A29P1            A29R             B05              100.00     0.0140     4.20       4.20       0          0
B04P1            B04R             B05              110.00     0.0140     5.96       5.61       0          0
B01P1            B01R             B02              850.00     0.0140     8.50       7.66       0          0
B02P1            B02R             B03              600.00     0.0140     7.66       7.06       0          0
B03P1            B03R             B04              1100.00    0.0200     7.06       5.96       0          0
B18P             B18R             B20              380.00     0.0140     4.25       3.68       0          0
B20P1            B20R             B21              80.00      0.0140     3.68       3.66       0          0
A24P1            A24R             A25              600.00     0.0120     6.03       5.79       0          0
A22P1            A22R             A118             430.00     0.0120     6.36       6.19       0          0
A20P1            A20R             A21              420.00     0.0120     6.47       6.37       0          0
A18P1            A18R             A19              170.00     0.0120     6.56       6.48       0          0
A16P1            A16R             A17              360.00     0.0120     6.57       6.56       0          0
A10P1            A10R             A16              220.00     0.0120     6.64       6.57       0          0
A27P1            A27R             A28              750.00     0.0120     5.41       5.41       0          0
A121P1           A121             A124             500.00     0.0120     8.80       8.00       0          0
A125P1           A125G1           A132             150.00     0.0120     8.00       7.50       0          0
A132P1           A132             A26              940.00     0.0120     7.50       5.91       0          0
A123P1           A123             A124             500.00     0.0120     8.80       8.00       0          0
A127P1           A127             A130             500.00     0.0120     8.80       8.00       0          0
A129P1           A129             A130             500.00     0.0120     8.80       8.00       0          0
A119P1           A119G1           A23              200.00     0.0120     6.06       6.06       0          0
A115P1           A115G1           A116             400.00     0.0120     8.00       6.50       0          0
A116P1           A116G1           A118             140.00     0.0120     6.50       6.20       0          0
A113P1           A113G1           A114             200.00     0.0120     7.50       6.50       0          0
A101P1           A101R            A102             500.00     0.0120     8.90       8.70       0          0
A102P1           A102R            A103             560.00     0.0120     8.70       8.40       0          0
A103P1           A103R            A104             450.00     0.0120     8.40       8.10       0          0
A104P1           A104G1           A105             125.00     0.0120     8.10       8.00       0          0
A106P1           A106G1           A107             30.00      0.0120     8.10       8.00       0          0
A108P1           A108G1           A110             200.00     0.0120     8.50       7.50       0          0
A112P1           A112G1           A113             450.00     0.0120     9.00       7.50       0          0
A118P1           A118R            A23              320.00     0.0120     6.19       6.06       0          0
A114P1           A114G1           A21              150.00     0.0120     6.50       6.37       0          0
A02C             A02              A03              400.00     0          7.33       7.28       0          0
A105C            A105             A03              430.00     0          8.00       7.28       0          0
A107C            A107             A04              300.00     0          8.00       7.25       0          0
A111P1           A111R            A16              48.90      0.0140     7.17       6.57       0          0
Golf_p1          Golf             B07              33.00      0.0140     8.00       7.00       0          0
C17C             C17              C18              470.00     0          7.24       6.66       0          0
C19C             C19              C20              280.00     0          6.60       6.29       0          0
C21C             C21              C22              620.00     0          6.06       6.38       0          0
C29P             C29              C30              150.00     0.0240     1.38       0.96       0          0
C30P             C30              C31              280.00     0.0140     0.96       0.92       0          0
C31C             C31              C32              350.00     0          0.43       -1.50      0          0
C32C             C32              C33              130.00     0          -1.50      -1.52      0          0
C33P1            C33R             C34              151.00     0.0140     -1.52      -1.61      0          0
C23P1            C23P2            C23R             420.00     0.0140     4.93       4.80       0          0
C20P1            C20R             C21              86.50      0.0140     6.29       6.06       0          0
C18P1            C18P2            C18R             90.00      0.0140     6.66       6.60       0          0
C16P1            C16R             C17              86.00      0.0140     7.37       7.24       0          0
C107P1           C107R            C113             100.00     0.0140     6.51       6.45       0          0
C34C             C34              C35              200.00     0          -1.61      -1.74      0          0
C22P1            C22R             C23              620.00     0.0140     6.38       5.76       0          0
C24P1            C24R             C25              400.00     0.0140     4.80       4.50       0          0
C25P1            C25R             C26              250.00     0.0140     4.50       3.96       0          0
C26P1            C26R             C27              220.00     0.0140     3.96       3.09       0          0
C27P1            C27R             C28              230.00     0.0240     3.09       3.09       0          0
C28P1            C28R             C29              450.00     0.0240     3.09       1.38       0          0
C02P1            C02R             C03              120.00     0.0140     4.04       3.82       0          0
C03P1            C03R             C04              330.00     0.0140     3.82       3.19       0          0
C04P1            C04R             C06              320.00     0.0240     3.19       2.77       0          0
C06P1            C06R             C29              1300.00    0.0240     2.77       1.38       0          0
C01P1            C01R             C03              190.00     0.0140     4.58       3.82       0          0
C05P1            C05R             C06              250.00     0.0140     5.59       2.77       0          0
C112P1           C112             C113             20.00      0.0120     6.47       6.45       0          0
C108P1           C108             C14              200.00     0.0120     8.00       6.60       0          0
C101P1           C101             C102             660.00     0.0120     8.50       6.75       0          0
C106P1           C106             C107             20.00      0.0120     6.60       6.51       0          0
C113P1           C113             C02              700.00     0.0140     6.45       4.04       0          0
A28P1            A28R             A29              450.00     0.0140     6.21       4.55       0          0
A30P1            A30R             A26              260.00     0.0140     6.87       5.91       0          0
A26P1            A26R             A27              180.00     0.0120     5.91       5.41       0          0
A31P1            A31R             A26              140.00     0.0140     6.56       5.91       0          0
A23P1            A23R             A24              80.00      0.0120     6.06       6.03       0          0
A21P1            A21R             A22              94.00      0.0120     6.37       6.36       0          0
A19P1            A19R             A20              98.50      0.0120     6.48       6.47       0          0
A17P1            A17R             A18              62.00      0.0120     6.56       6.56       0          0
A09P1            A09R             A10              78.60      0.0120     6.66       6.64       0          0
A25P1            A25R             A29              420.00     0.0140     5.79       5.61       0          0
A109P1           A109             A110             100.00     0.0120     8.00       7.50       0          0
A117p1           A117             A118             150.00     0.0120     8.00       6.20       0          0
A131P1           A131G1           A132             50.00      0.0120     8.00       7.50       0          0
A120P1           A120             A121             40.00      0.0120     9.00       8.80       0          0
A122P1           A122             A123             40.00      0.0120     9.00       8.80       0          0
A128P1           A128             A129             40.00      0.0120     9.00       8.80       0          0
A126P1           A126             A127             40.00      0.0120     9.00       8.80       0          0
C14C             C14              C109             370.00     0          6.60       6.40       0          0
C109C            C109             C110             600.00     0          6.40       6.44       0          0
C102C            C102             C103             700.00     0          6.75       6.70       0          0
C103C            C103             C104             270.00     0          6.70       6.63       0          0
C104C            C104             C105             130.00     0          6.63       6.60       0          0
C110C            C110             C111             100.00     0          6.44       6.45       0          0
632              C101             A101             0          0          0          0          0          0

[WEIRS]
;;Name           From             To               Type       CrestHt    Qcoeff     Gated    EndCon   EndCoeff   Surcharge
;;-------------- ---------------- ---------------- ---------- ---------- ---------- -------- -------- ---------- ----------
A110W1           A110G1           A111             TRANSVERSE 8.00       1.840      NO       0        0          YES
A124W1           A141G1           A124W2           TRANSVERSE 8.50       1.840      NO       0        0          YES
A130W1           A130G1           A130W2           TRANSVERSE 8.50       1.840      NO       0        0          YES
C114w1           C114w2           C01              TRANSVERSE 6.00       1.840      NO       0        0          YES
C105w1           C105w2           C106             TRANSVERSE 8.00       1.840      NO       0        0          YES
C115w1           C115w2           C05              TRANSVERSE 6.00       1.840      NO       0        0          YES
C111W1           C111W2           C112             TRANSVERSE 8.00       1.840      NO       0        0          YES

[XSECTIONS]
;;Link           Shape        Geom1      Geom2      Geom3      Geom4      Barrels
;;-------------- ------------ ---------- ---------- ---------- ---------- ----------
A06C             IRREGULAR    0          0          0          0          1
A08C             IRREGULAR    0          0          0          0          1
A03C             IRREGULAR    0          0          0          0          1
A04C             IRREGULAR    0          0          0          0          1
B11C             IRREGULAR    0          0          0          0          1
B13C             IRREGULAR    0          0          0          0          1
B17C             IRREGULAR    0          2.50       0          0          1
B21C             IRREGULAR    0          3.00       0          0          1
B19C             IRREGULAR    0          2.50       0          0          1
B16C             IRREGULAR    0          0          0          0          1
B07C             IRREGULAR    0          0          0          0          1
B22C             IRREGULAR    0          0          0          0          1
B23C             IRREGULAR    0          0          0          0          1
B24C             IRREGULAR    0          0          0          0          1
B26C             IRREGULAR    0          0          0          0          1
B28C             IRREGULAR    0          0          0          0          1
B29P             HORSESHOE    6.30       6.30       0          0          1
B27p1            CIRCULAR     3.00       0          0          0          1
B25P1            CIRCULAR     3.00       0          0          0          1
B15P1            CIRCULAR     3.00       0          0          0          1
B12P1            CIRCULAR     3.00       0          0          0          1
B08C             IRREGULAR    0          0          0          0          1
A07P1            CIRCULAR     2.00       0          0          0          1
B30C             IRREGULAR    0          0          0          0          1
B05P1            CIRCULAR     3.00       0          0          0          2
B06P1            CIRCULAR     3.00       0          0          0          2
B10P1            CIRCULAR     3.00       0          0          0          2
B09P1            CIRCULAR     3.50       0          0          0          1
A29P1            CIRCULAR     5.50       0          0          0          1
B04P1            CIRCULAR     4.00       0          0          0          1
B01P1            CIRCULAR     4.00       0          0          0          1
B02P1            CIRCULAR     4.50       0          0          0          1
B03P1            RECT_CLOSED  4.00       11.00      0          0          1
B18P             CIRCULAR     2.00       0          0          0          1
B20P1            CIRCULAR     3.00       0          0          0          1
A24P1            CIRCULAR     2.50       10.00      0          0          1
A22P1            CIRCULAR     3.00       10.00      0          0          2
A20P1            CIRCULAR     3.00       10.00      0          0          1
A18P1            CIRCULAR     2.50       10.00      0          0          1
A16P1            CIRCULAR     2.50       10.00      0          0          1
A10P1            CIRCULAR     2.00       10.00      0          0          1
A27P1            CIRCULAR     4.00       8.00       0          0          1
A121P1           CIRCULAR     2.50       0          0          0          1
A125P1           CIRCULAR     1.50       0          0          0          1
A132P1           CIRCULAR     2.00       0          0          0          1
A123P1           CIRCULAR     2.50       0          0          0          1
A127P1           CIRCULAR     2.50       0          0          0          1
A129P1           CIRCULAR     2.50       0          0          0          1
A119P1           CIRCULAR     3.00       0          0          0          3
A115P1           CIRCULAR     1.50       0          0          0          1
A116P1           CIRCULAR     2.50       0          0          0          1
A113P1           CIRCULAR     2.00       0          0          0          1
A101P1           CIRCULAR     2.00       0          0          0          1
A102P1           CIRCULAR     2.50       0          0          0          1
A103P1           CIRCULAR     3.00       0          0          0          1
A104P1           CIRCULAR     3.00       0          0          0          1
A106P1           CIRCULAR     1.00       0          0          0          1
A108P1           CIRCULAR     3.00       0          0          0          1
A112P1           CIRCULAR     1.50       0          0          0          1
A118P1           CIRCULAR     3.00       10.00      0          0          3
A114P1           CIRCULAR     2.50       0.00       0          0          1
A02C             IRREGULAR    0          0          0          0          1
A105C            IRREGULAR    0          0          0          0          1
A107C            IRREGULAR    0          0          0          0          1
A111P1           CIRCULAR     2.50       0          0          0          1
Golf_p1          CIRCULAR     1.00       0          0          0          1
C17C             IRREGULAR    0          0          0          0          1
C19C             IRREGULAR    0          0          0          0          1
C21C             IRREGULAR    0          0          0          0          1
C29P             HORSESHOE    5.00       0          0          0          1
C30P             RECT_CLOSED  3.00       14.00      0          0          1
C31C             IRREGULAR    0          0          0          0          1
C32C             IRREGULAR    0          0          0          0          1
C33P1            RECT_CLOSED  6.00       8.00       0          0          2