;; SWMM5 .inp converted from XPSWMM .xp file
;; Generated by XPSWMM Card Reader
;; Source format: XP_CARD | Original title: 10yr 6hr: Existing

[TITLE]
;;Project Title/Notes
10yr 6hr: Existing

[OPTIONS]
FLOW_UNITS           CMS
INFILTRATION         HORTON
FLOW_ROUTING         DYNWAVE
LINK_OFFSETS         DEPTH
MIN_SLOPE            0.0
ALLOW_PONDING        NO
SKIP_STEADY_STATE    NO
ROUTING_STEP         00:00:300
VARIABLE_STEP        0.75
INERTIAL_DAMPING     PARTIAL
NORMAL_FLOW_LIMITED  BOTH
MAX_TRIALS           50
HEAD_TOLERANCE       .00001

[JUNCTIONS]
;;Name           Elev       MaxDepth   InitDepth  SurDepth   Aponded
;;-------------- ---------- ---------- ---------- ---------- ----------
0                10.00      0          0.47       0          0
0                10.00      0          0.35       0          0
0                4.94       0          0.46       0          0
0                25.09      0          0.61       0          0
0                38.92      0          0.53       0          0
0                16.69      0          0.57       0          0
0                38.23      0          0.56       0          0
0                9.72       0          0          0          0
0                8.66       0          0          0          0
0                8.64       0          0          0          0
0                9.02       0          0          0          0
0                8.75       0          0          0          0
0                8.80       0          0          0          0
0                8.95       0          0          0          0
0                9.17       0          0          0          0
0                9.00       0          0          0          0
0                9.06       0          0          0          0
0                9.18       0          0          0          0
0                8.80       0          0          0          0
0                9.06       0          0          0          0
0                9.54       0          0          0          0
0                9.53       0          0          0          0
0                11.65      0          0          0          0
0                13.72      0          0          0          0
0                14.20      0          0          0          0
0                14.73      0          0          0          0
0                17.12      0          0          0          0
0                9.85       0          0.21       0          0
0                12.91      0          0          0          0
0                11.80      0          0          0          0
0                13.71      0          0          0          0
0                13.73      0          0          0          0
0                14.06      0          0          0          0
0                10.34      0          0.48       0          0
0                11.31      0          0.47       0          0
0                9.91       0          0.44       0          0
0                10.03      0          0.41       0          0
0                12.00      0          0.14       0          0
0                14.30      0          0          0          0
0                15.00      0          0          0          0
0                14.10      0          0          0          0
0                14.80      0          0          0          0
0                15.65      0          0          0          0
0                28.19      0          0          0          0
0                10.00      0          0.68       0          0
0                10.00      0          0          0          0
0                14.98      0          0.51       0          0
0                12.96      0          0.52       0          0
0                10.87      0          0.48       0          0
0                10.21      0          0          0          0
0                12.51      0          0          0          0
0                15.30      0          0          0          0
0                14.30      0          0          0          0
0                13.00      0          0          0          0
0                11.30      0          0          0          0
0                14.20      0          0          0          0
0                13.80      0          0          0          0
0                14.20      0          0          0          0
0                26.30      0          0          0          0
0                25.00      0          0          0          0
0                21.50      0          0          0          0
0                19.00      0          0          0          0
0                16.30      0          0          0          0
0                22.50      0          0          0          0
0                21.00      0          0          0          0
0                20.00      0          0          0          0
0                40.80      0          0          0          0
0                39.30      0          0          0          0
0                46.80      0          0          0          0
0                45.00      0          0          0          0
0                15.50      0          0          0          0
0                20.30      0          0          0          0
0                11.00      0          0.08       0          0
0                11.00      0          0.14       0          0
0                12.30      0          0          0          0
0                11.00      0          0          0          0
0                13.00      0          0          0          0
0                10.00      0          0          0          0
0                10.05      0          0          0          0
0                11.03      0          0          0          0
0                14.00      0          0          0          0
0                23.00      0          0          0          0
0                58.00      0          0          0          0
0                24.00      0          0          0          0
0                30.30      0          0          0          0
0                45.00      0          0          0          0

[STORAGE]
;;Name           Elev       MaxDepth   InitDepth  Shape      Curve/Params
;;-------------- ---------- ---------- ---------- ---------- ----------
0                8.00       0          0.53       FUNCTIONAL 0 0          0
0                8.10       0          0.46       FUNCTIONAL 10.00 0          0
0                8.00       0          0.63       FUNCTIONAL 0 0          0
0                9.00       0          0.58       FUNCTIONAL 10.00 0          0
0                9.00       0          0.68       FUNCTIONAL 10.00 0          0
0                11.90      0          0.56       FUNCTIONAL 10.00 0          0
0                11.90      0          0.66       FUNCTIONAL 10.00 0          0
0                8.09       0          0.56       FUNCTIONAL 10.00 0          0
0                8.59       0          0          FUNCTIONAL 10.00 0          0
0                8.64       0          0          FUNCTIONAL 10.00 0          0
0                8.72       0          0          FUNCTIONAL 10.00 0          0
0                8.79       0          0          FUNCTIONAL 10.00 0          0
0                9.73       0          0          FUNCTIONAL 0 0          0
0                8.85       0          0          FUNCTIONAL 10.00 0          0
0                8.80       0          0          FUNCTIONAL 10.00 0          0
0                8.72       0          0          FUNCTIONAL 10.00 0          0
0                8.75       0          0          FUNCTIONAL 10.00 0          0
0                8.55       0          0          FUNCTIONAL 0 0          0
0                8.65       0          0          FUNCTIONAL 0 0          0
0                11.00      0          0.24       FUNCTIONAL 0 0          0
0                8.18       0          0.54       FUNCTIONAL 10.00 0          0
0                9.15       0          0.44       FUNCTIONAL 10.00 0          0
0                9.25       0          0.38       FUNCTIONAL 0 0          0
0                10.47      0          0          FUNCTIONAL 10.00 0          0
0                11.59      0          0          FUNCTIONAL 10.00 0          0
0                12.50      0          0          FUNCTIONAL 10.00 0          0
0                12.60      0          0          FUNCTIONAL 10.00 0          0
0                13.30      0          0          FUNCTIONAL 0 0          0
0                12.05      0          0          FUNCTIONAL 0 0          0
0                12.00      0          0          FUNCTIONAL 0 0          0
0                12.44      0          0          FUNCTIONAL 10.00 0          0
0                12.42      0          0          FUNCTIONAL 10.00 0          0
0                12.60      0          0          FUNCTIONAL 10.00 0          0
0                13.17      0          0          FUNCTIONAL 10.00 0          0
0                13.49      0          0          FUNCTIONAL 10.00 0          0
0                14.40      0          0          FUNCTIONAL 0 0          0
0                14.61      0          0          FUNCTIONAL 10.00 0          0
0                14.69      0          0          FUNCTIONAL 0 0          0
0                14.80      0          0          FUNCTIONAL 0 0          0
0                8.24       0          0.50       FUNCTIONAL 10.00 0          0
0                8.67       0          0.27       FUNCTIONAL 10.00 0          0
0                8.80       0          0.48       FUNCTIONAL 10.00 0          0
0                9.93       0          0.21       FUNCTIONAL 10.00 0          0
0                10.00      0          0.35       FUNCTIONAL 0 0          0
0                10.16      0          0.53       FUNCTIONAL 0 0          0
0                10.16      0          0.51       FUNCTIONAL 0 0          0
0                10.22      0          0.48       FUNCTIONAL 10.00 0          0
0                10.60      0          0.14       FUNCTIONAL 10.00 0          0
0                10.88      0          0.20       FUNCTIONAL 10.00 0          0
0                10.98      0          0.19       FUNCTIONAL 0 0          0
0                11.05      0          0.19       FUNCTIONAL 10.00 0          0
0                11.05      0          0.14       FUNCTIONAL 0 0          0
0                11.16      0          0.17       FUNCTIONAL 10.00 0          0
0                10.67      0          0.15       FUNCTIONAL 0 0          0
0                10.86      0          0.10       FUNCTIONAL 10.00 0          0
0                10.96      0          0.17       FUNCTIONAL 10.00 0          0
0                11.00      0          0.19       FUNCTIONAL 10.00 0          0
0                11.73      0          0.21       FUNCTIONAL 0 0          0
0                11.78      0          0.17       FUNCTIONAL 0 0          0
0                11.79      0          0.16       FUNCTIONAL 0 0          0
0                12.35      0          0          FUNCTIONAL 10.00 0          0
0                13.00      0          0          FUNCTIONAL 0 0          0
0                12.50      0          0          FUNCTIONAL 10.00 0          0
0                12.56      0          0          FUNCTIONAL 10.00 0          0
0                13.24      0          0          FUNCTIONAL 10.00 0          0
0                11.93      0          0.02       FUNCTIONAL 0 0          0
0                12.21      0          0          FUNCTIONAL 10.00 0          0
0                11.76      0          0          FUNCTIONAL 0 0          0
0                12.04      0          0          FUNCTIONAL 0 0          0
0                12.34      0          0          FUNCTIONAL 0 0          0
0                14.00      0          0          FUNCTIONAL 10.00 0          0
0                14.30      0          0          FUNCTIONAL 0 0          0
0                11.89      0          0.06       FUNCTIONAL 0 0          0
0                12.00      0          0.02       FUNCTIONAL 10.00 0          0
0                12.00      0          0          FUNCTIONAL 0 0          0
0                12.34      0          0          FUNCTIONAL 0 0          0
0                13.71      0          0          FUNCTIONAL 10.00 0          0
0                17.20      0          0          FUNCTIONAL 100.00 0          0
0                17.33      0          0          FUNCTIONAL 0 0          0
0                17.32      0          0          FUNCTIONAL 0 0          0
0                18.04      0          0          FUNCTIONAL 0 0          0
0                19.90      0          0          FUNCTIONAL 0 0          0
0                20.29      0          0          FUNCTIONAL 0 0          0
0                22.81      0          0          FUNCTIONAL 0 0          0
0                25.35      0          0          FUNCTIONAL 0 0          0
0                26.11      0          0          FUNCTIONAL 0 0          0
0                26.34      0          0          FUNCTIONAL 0 0          0
0                27.57      0          0          FUNCTIONAL 0 0          0
0                14.00      0          0          FUNCTIONAL 0 0          0
0                37.30      0          0          FUNCTIONAL 0 0          0
0                13.00      0          0.13       FUNCTIONAL 0 0          0
0                30.30      0          0          FUNCTIONAL 0 0          0
0                8.00       0          0          FUNCTIONAL 0 0          0
0                8.00       0          0.59       FUNCTIONAL 10.00 0          0
0                8.24       0          2.10       FUNCTIONAL 0 0          0
0                8.27       0          2.00       FUNCTIONAL 0 0          0
0                8.27       0          0.46       FUNCTIONAL 10.00 0          0
0                8.27       0          2.00       FUNCTIONAL 0 0          0
0                10.21      0          0          FUNCTIONAL 10.00 0          0
0                10.21      0          0          FUNCTIONAL 10.00 0          0
0                12.08      0          0          FUNCTIONAL 0 0          0
0                13.45      0          0          FUNCTIONAL 10.00 0          0
0                15.80      0          0          FUNCTIONAL 0 0          0
0                25.30      0          0          FUNCTIONAL 10.00 0          0
0                14.90      0          0          FUNCTIONAL 10.00 0          0
0                18.30      0          0          FUNCTIONAL 0 0          0
0                14.30      0          0          FUNCTIONAL 0 0          0
0                13.61      0          0          FUNCTIONAL 0 0          0
0                13.30      0          0          FUNCTIONAL 10.00 0          0
0                13.00      0          0          FUNCTIONAL 10.00 0          0
0                10.05      0          0.20       FUNCTIONAL 0 0          0
0                10.05      0          0.75       FUNCTIONAL 0 0          0
0                10.00      0          1.34       FUNCTIONAL 0 0          0
0                10.98      0          0.14       FUNCTIONAL 10.00 0          0
0                11.03      0          1.60       FUNCTIONAL 0 0          0
0                10.96      0          0.19       FUNCTIONAL 0 0          0
0                10.92      0          0.20       FUNCTIONAL 0 0          0
0                11.80      0          0          FUNCTIONAL 10.00 0          0
0                12.00      0          0.02       FUNCTIONAL 0 0          0
0                11.14      0          0.18       FUNCTIONAL 0 0          0
0                12.09      0          0          FUNCTIONAL 0 0          0
0                13.00      0          0          FUNCTIONAL 0 0          0
0                11.85      0          0.10       FUNCTIONAL 0 0          0
0                14.00      0          0.06       FUNCTIONAL 10.00 0          0
0                14.11      0          0          FUNCTIONAL 10.00 0          0
0                14.30      0          0          FUNCTIONAL 10.00 0          0
0                14.10      0          0          FUNCTIONAL 0 0          0
0                12.82      0          0          FUNCTIONAL 10.00 0          0
0                34.80      0          0          FUNCTIONAL 0 0          0
0                31.30      0          0          FUNCTIONAL 10.00 0          0
0                28.30      0          0          FUNCTIONAL 10.00 0          0
0                28.30      0          0          FUNCTIONAL 0 0          0
0                21.00      0          0          FUNCTIONAL 10.00 0          0
0                27.80      0          0          FUNCTIONAL 0 0          0
0                32.30      0          0          FUNCTIONAL 10.00 0          0
0                32.00      0          0          FUNCTIONAL 10.00 0          0
0                29.30      0          0          FUNCTIONAL 10.00 0          0
0                24.00      0          0          FUNCTIONAL 0 0          0
0                25.10      0          0          FUNCTIONAL 0 0          0
0                25.30      0          0          FUNCTIONAL 10.00 0          0
0                54.30      0          0          FUNCTIONAL 0 0          0
0                47.30      0          0          FUNCTIONAL 0 0          0
0                45.10      0          0          FUNCTIONAL 10.00 0          0
0                44.30      0          0          FUNCTIONAL 0 0          0
0                38.80      0          0          FUNCTIONAL 10.00 0          0
0                33.30      0          0          FUNCTIONAL 0 0          0
0                45.00      0          0          FUNCTIONAL 0 0          0
0                28.80      0          0          FUNCTIONAL 10.00 0          0
0                12.38      0          0          FUNCTIONAL 10.00 0          0
0                56.30      0          0          FUNCTIONAL 0 0          0
0                8.00       0          2.00       FUNCTIONAL 0 0          0
0                15.80      0          0          FUNCTIONAL 0 0          0
0                13.26      0          0          FUNCTIONAL 10.00 0          0
0                13.38      0          0          FUNCTIONAL 10.00 0          0
0                14.50      0          0          FUNCTIONAL 0 0          0
0                17.30      0          0          FUNCTIONAL 10.00 0          0
0                23.30      0          0          FUNCTIONAL 0 0          0
0                22.80      0          0          FUNCTIONAL 0 0          0
0                23.00      0          0          FUNCTIONAL 0 0          0
0                25.30      0          0          FUNCTIONAL 0 0          0
0                40.30      0          0          FUNCTIONAL 0 0          0
0                45.30      0          0          FUNCTIONAL 0 0          0
0                58.00      0          0          FUNCTIONAL 0 0          0
0                53.30      0          0          FUNCTIONAL 10.00 0          0
0                15.20      0          0          FUNCTIONAL 10.00 0          0
0                12.00      0          0          FUNCTIONAL 10.00 0          0
0                20.30      0          0          FUNCTIONAL 10.00 0          0
0                26.30      0          0          FUNCTIONAL 10.00 0          0
0                20.80      0          0          FUNCTIONAL 10.00 0          0
0                11.00      0          0          FUNCTIONAL 0 0          0
0                11.00      0          0.05       FUNCTIONAL 10.00 0          0
0                11.00      0          0.12       FUNCTIONAL 10.00 0          0
0                11.16      0          0.16       FUNCTIONAL 10.00 0          0
0                13.30      0          0          FUNCTIONAL 10.00 0          0

[CONDUITS]
;;Name           From             To               Length     Roughness  InOffset   OutOffset  InitFlow   MaxFlow
;;-------------- ---------------- ---------------- ---------- ---------- ---------- ---------- ---------- ----------
HM17_1           0                0                54.86      0.0120     5.98       5.95       0          0
HM16_1           0                0                379.00     0.0250     5.95       5.81       0          0
HM14_1           0                0                127.76     0.0250     5.80       5.75       0          0
HM13_1           0                0                12.20      0.0120     5.75       5.74       0          0
HM12_1           0                0                270.00     0.0250     5.74       5.64       0          0
HP5_1            0                0                119.00     0.0250     7.26       7.18       0          0
HP13_1           0                0                21.00      0.0120     7.88       7.70       0          0
HP12_1           0                0                45.00      0.0120     7.70       7.62       0          0
HP11_1           HP11_2           0                55.10      0.1000     0          0          0          0
HP10_1           0                0                51.20      0.0120     7.60       7.51       0          0
HP9_1            0                0                114.00     0.0120     8.12       7.87       0          0
HP8_1            0                0                54.00      0.0120     7.87       7.75       0          0
HP7_1            0                0                55.50      0.0250     7.75       7.72       0          0
HP6_1            0                0                3.50       0.0120     7.72       7.70       0          0
HP4_1            0                0                117.50     0.0250     7.18       7.10       0          0
HP3_1            HP3L_1           HP3L_3           19.40      0.1000     0          0          0          0
HP2_1            0                0                200.00     0.0250     7.05       6.73       0          0
FL10_1           FL10_2           0                45.50      0.1000     0          0          0          0
FL9_1            FL9_2            0                45.50      0.1000     0          0          0          0
FL8_1            FL8_2            0                45.50      0.1000     0          0          0          0
FL7_1            FL7_2            0                45.50      0.1000     0          0          0          0
FL6_1            FL6_2            0                82.90      0.1000     0          0          0          0
FL5_1            FL5_2            0                82.90      0.1000     0          0          0          0
FL4_1            0                0                89.00      0.0120     6.94       6.85       0          0
FL3_1            0                0                20.00      0.0120     6.75       6.73       0          0
SY10_1           0                0                61.00      0.0120     15.00      13.60      0          0
SY9_1            0                0                14.00      0.0120     13.60      13.10      0          0
SY8_1            0                0                11.00      0.0120     12.40      12.20      0          0
SY7_1            0                0                69.00      0.0120     12.20      10.20      0          0
SY6_1            0                0                70.00      0.0120     10.20      8.20       0          0
SY5_1            0                0                11.00      0.0120     7.24       7.23       0          0
SY4_1            SY4_2            0                9.50       0.1000     0          0          0          0
SY3_1            SY3_2            0                9.50       0.1000     0          0          0          0
SY2_1            SY2_2            0                9.50       0.1000     0          0          0          0
SY1_1            0                0                18.00      0.0120     6.82       6.75       0          0
HM21_1           0                0                429.50     0.0250     6.25       6.16       0          0
BG4_1            0                0                49.40      0.0120     6.42       6.36       0          0
BG2_1            0                0                970.00     0.0250     6.34       6.25       0          0
BG6_1            0                0                148.10     0.0120     6.83       6.60       0          0
BG5_1            0                0                129.10     0.0120     6.59       6.46       0          0
BG13_1           0                0                42.00      0.0250     9.40       9.35       0          0
BG12_1           0                0                61.00      0.0120     9.35       9.27       0          0
BG14_1           0                0                107.90     0.0120     9.76       9.40       0          0
BG15_1           0                0                39.30      0.0120     9.80       9.76       0          0
BG18_1           0                0                166.10     0.0120     9.85       9.87       0          0
BG17_1           0                0                106.30     0.0120     9.87       9.50       0          0
BG16_1           0                0                63.90      0.0120     9.50       9.80       0          0
BG23_1           0                0                100.90     0.0120     10.60      10.44      0          0
BG22_1           0                0                5.00       0.0250     10.44      10.27      0          0
BG21_1           0                0                7.60       0.0120     10.27      10.31      0          0
BG24_1           0                0                171.30     0.0250     10.92      10.60      0          0
BG25_1           0                0                115.70     0.0120     11.10      10.92      0          0
BG28_1           0                0                40.90      0.0120     11.64      11.38      0          0
BG27_1           0                0                39.90      0.0120     11.38      11.20      0          0
BG26_1           0                0                42.80      0.0120     11.20      11.11      0          0
BG30_1           BG30_2           0                116.30     0.1000     0          0          0          0
BG31_1           BG31_2           0                116.30     0.1000     0          0          0          0
OS1_1            0                0                253.23     0.0250     6.31       6.25       0          0
OS3_1            OS3_2            0                19.70      0.1000     0          0          0          0
OS5_1            0                0                38.27      0.0120     7.24       7.15       0          0
OS4_1            0                0                47.00      0.0250     7.15       6.87       0          0
JK5_1            0                0                35.36      0.0120     7.68       7.64       0          0
JK4_1            0                0                42.98      0.0120     7.64       7.60       0          0
JK3_1            0                0                91.13      0.0120     7.60       7.52       0          0
JK2_1            0                0                36.58      0.0120     7.52       7.47       0          0
JK6_1            0                0                91.13      0.0120     7.76       7.68       0          0
JK8_1            0                0                114.30     0.0120     7.95       7.85       0          0
JK7_1            0                0                91.13      0.0120     7.85       7.76       0          0
OS11_1           0                0                49.90      0.0120     8.22       8.07       0          0
H11cL1_1         0                0                68.91      0.0250     8.37       8.32       0          0
H11dL1_1         0                0                27.20      0.0120     8.44       8.39       0          0
OS15_1           0                0                273.00     0.0250     8.39       8.32       0          0
OS18_1           0                0                142.61     0.0120     8.65       8.50       0          0
OS16_1           0                0                300.00     0.0250     8.48       8.39       0          0
OS20_1           0                0                97.70      0.0120     9.00       8.84       0          0
OS19_1           0                0                350.00     0.0250     8.84       8.65       0          0
OS24_1           0                0                48.00      0.0140     9.42       9.37       0          0
OS22_1           0                0                41.90      0.0120     9.37       9.36       0          0
AS1_1            0                0                87.00      0.0250     9.43       9.42       0          0
HT5_1            0                0                106.00     0.0120     10.35      9.99       0          0
HT6_1            0                0                231.00     0.0250     11.14      10.90      0          0
HT4_1            0                0                62.00      0.0250     10.20      10.14      0          0
HT3_1            0                0                150.00     0.0250     10.14      9.99       0          0
JN3_1            0                0                53.00      0.0120     10.03      9.85       0          0
JN8_1            0                0                66.60      0.0120     12.28      11.79      0          0
JN7_1            0                0                81.30      0.0120     11.79      11.80      0          0
JN9_1            0                0                65.00      0.0120     12.37      12.33      0          0
AS5_1            0                0                48.50      0.0120     9.59       9.57       0          0
AS4_1            0                0                222.00     0.0250     9.57       9.53       0          0
AS6_1            0                0                551.00     0.0250     9.92       9.59       0          0
AS7_1            0                0                200.00     0.0250     10.41      9.92       0          0