;; SWMM5 .inp converted from XPSWMM .xp file
;; Generated by XPSWMM Card Reader
;; Source format: XP_CARD | Original title: (none)

[TITLE]
;;Project Title/Notes
Converted from XPSWMM .xp file

[OPTIONS]
FLOW_UNITS           CFS
INFILTRATION         HORTON
FLOW_ROUTING         DYNWAVE
LINK_OFFSETS         DEPTH
MIN_SLOPE            0.0
ALLOW_PONDING        NO
SKIP_STEADY_STATE    NO
ROUTING_STEP         00:00:45
VARIABLE_STEP        0.75
INERTIAL_DAMPING     PARTIAL
NORMAL_FLOW_LIMITED  BOTH

[JUNCTIONS]
;;Name           Elev       MaxDepth   InitDepth  SurDepth   Aponded
;;-------------- ---------- ---------- ---------- ---------- ----------
mh42             770.16     0          0          0          0
mh44             772.29     0          0          0          0
mh81             768.11     0          0          0          0
mh79             770.72     0          0          0          0
mh78             765.70     0          0          0          0
mh75             754.70     0          0          0          0
mh32             719.95     0          0          0          0
mh30             718.33     0          0          0          0
mh28             715.06     0          0          0          0
mh27             708.83     0          0          0          0
mh29             703.69     0          0          0          0
mh34             699.74     0          0          0          0
mh39             694.42     0          0          0          0
mh41             691.01     0          0          0          0
mh42a            688.69     0          0          0          0
mh8              687.06     0          0          0          0
mh46             692.93     0          0          0          0
mh51             767.10     0          0          0          0
mh65             757.16     0          0          0          0
mh71             744.29     0          0          0          0
mh64             775.14     0          0          0          0
mh63             744.61     0          0          0          0
mh62             733.57     0          0          0          0
mh24             713.39     0          0          0          0
mh23             708.83     0          0          0          0
mh74             732.26     0          0          0          0
mh58             754.34     0          0          0          0
mh69             740.27     0          0          0          0
mh67             754.42     0          0          0          0
mh26             753.31     0          0          0          0
mh22             745.20     0          0          0          0
mh18             735.73     0          0          0          0
mh15             729.80     0          0          0          0
mh14             714.68     0          0          0          0
mh17             713.85     0          0          0          0
mh60             724.60     0          0          0          0
mh17a            733.46     0          0          0          0
mh50             703.76     0          0          0          0
mh49             700.71     0          0          0          0
mh47             702.93     0          0          0          0
mh33             734.11     0          0          0          0
mh10             690.21     0          0          0          0
mh11             686.55     0          0          0          0
mh12             685.75     0          0          0          0
mh34a            766.12     0          0          0          0
mh35             756.03     0          0          0          0
mh76             748.49     0          0          0          0
mh55             766.87     0          0          0          0
mh73             733.32     0          0          0          0
mh59             733.83     0          0          0          0
mh19             685.41     0          0          0          0
mh1              684.75     0          0          0          0
mh1a             680.46     0          0          0          0
mh43             770.89     0          0          0          0
mh80             770.89     0          0          0          0
mh20             713.12     0          0          0          0
mh48             698.49     0          0          0          0
mh77             757.42     0          0          0          0
mh9              690.14     0          0          0          0
mh6              688.17     0          0          0          0
mh66             756.48     0          0          0          0
mh56             757.16     0          0          0          0
mh57             775.14     0          0          0          0
mh16             729.80     0          0          0          0

[CONDUITS]
;;Name           From             To               Length     Roughness  InOffset   OutOffset  InitFlow   MaxFlow
;;-------------- ---------------- ---------------- ---------- ---------- ---------- ---------- ---------- ----------
86               mh42             mh44             180.00     0.0140     767.36     766.29     0          0
94               mh43             mh81             260.00     0.0140     764.69     762.31     0          0
96               mh80             mh79             18.00      0.0140     761.89     761.52     0          0
98               mh79             mh78             405.00     0.0140     761.52     759.40     0          0
100              mh77             mh75             110.00     0.0140     752.27     743.90     0          0
102              mh75             mh32             520.00     0.0140     743.90     716.40     0          0
104              mh32             mh30             195.00     0.0140     716.40     713.03     0          0
106              mh30             mh28             450.00     0.0140     713.03     708.61     0          0
108              mh28             mh27             380.00     0.0140     708.61     699.93     0          0
110              mh27             mh29             260.00     0.0140     699.67     698.09     0          0
112              mh29             mh34             300.00     0.0140     698.09     695.99     0          0
114              mh34             mh39             525.00     0.0140     695.99     687.72     0          0
116              mh39             mh41             305.00     0.0140     687.72     685.01     0          0
118              mh41             mh42a            220.00     0.0140     685.01     682.99     0          0
120              mh42a            mh8              320.00     0.0130     682.99     680.11     0          0
133              mh65             mh71             340.00     0.0140     752.76     734.09     0          0
137              mh64             mh63             340.00     0.0140     747.04     734.21     0          0
139              mh63             mh62             375.00     0.0130     734.21     724.67     0          0
145              mh62             mh24             410.00     0.0130     724.67     702.79     0          0
147              mh24             mh23             235.00     0.0130     702.79     699.93     0          0
148              mh23             mh27             30.00      0.0130     699.93     699.67     0          0
150              mh74             mh62             33.00      0.0130     726.76     724.67     0          0
152              mh57             mh64             30.00      0.0140     747.40     747.04     0          0
154              mh69             mh71             220.00     0.0140     735.07     734.09     0          0
159              mh26             mh22             440.00     0.0140     748.31     738.45     0          0
161              mh22             mh18             350.00     0.0140     738.45     729.23     0          0
163              mh16             mh15             60.00      0.0140     723.40     722.45     0          0
165              mh15             mh14             410.00     0.0140     722.45     708.23     0          0
167              mh14             mh17             210.00     0.0130     708.23     705.63     0          0
168              mh20             mh24             390.00     0.0140     704.77     702.79     0          0
170              mh60             mh17             375.00     0.0140     721.90     705.63     0          0
172              mh17a            mh18             170.00     0.0140     730.66     729.23     0          0
183              mh50             mh49             340.00     0.0130     697.86     692.71     0          0
185              mh48             mh47             210.00     0.0140     692.59     691.13     0          0
186              mh47             mh46             310.00     0.0130     691.13     684.18     0          0
190              mh33             mh32             300.00     0.0140     729.16     716.40     0          0
206              mh10             mh11             310.00     0.0130     680.11     679.35     0          0
208              mh11             mh12             290.00     0.0130     679.35     678.85     0          0
220              mh35             mh76             290.00     0.0140     751.53     743.89     0          0
221              mh76             mh75             290.00     0.0140     743.89     743.90     0          0
228              mh56             mh65             25.00      0.0140     753.46     752.86     0          0
230              mh71             mh73             380.00     0.0140     734.09     729.87     0          0
231              mh73             mh28             400.00     0.0140     729.87     708.61     0          0
233              mh59             mh18             335.00     0.0140     730.38     729.23     0          0
235              mh12             mh19             315.00     0.0140     678.85     678.11     0          0
237              mh19             mh1              315.00     0.0140     678.11     677.85     0          0
239              mh1              mh1a             190.00     0.0140     677.85     676.46     0          0
243              mh44             mh43             150.00     0.0140     766.29     764.69     0          0
245              mh81             mh80             365.00     0.0140     762.31     761.89     0          0
247              mh17             mh20             165.00     0.0130     705.63     704.77     0          0
249              mh49             mh48             90.00      0.0130     692.71     692.59     0          0
251              mh78             mh77             310.00     0.0140     759.40     752.27     0          0
253              mh8              mh9              410.00     0.0130     680.11     680.49     0          0
256              mh9              mh10             20.00      0.0130     680.49     680.11     0          0
258              mh6              mh8              90.00      0.0140     683.47     680.11     0          0
259              mh46             mh6              180.00     0.0130     684.18     683.47     0          0
260              mh34a            mh35             415.00     0.0140     761.77     751.53     0          0
263              mh67             mh66             160.00     0.0130     750.22     747.78     0          0
265              mh55             mh56             300.00     0.0140     760.77     753.46     0          0
268              mh71             mh63             35.00      0.0140     734.09     734.21     0          0
271              mh51             mh55             585.00     0.0140     763.50     760.77     0          0
272              mh66             mh65             55.00      0.0140     747.78     747.41     0          0
273              mh65             mh64             35.00      0.0130     747.41     747.04     0          0
276              mh58             mh57             180.00     0.0130     749.54     747.40     0          0
278              mh18             mh16             305.00     0.0140     729.23     723.40     0          0

[XSECTIONS]
;;Link           Shape        Geom1      Geom2      Geom3      Geom4      Barrels
;;-------------- ------------ ---------- ---------- ---------- ---------- ----------
86               CIRCULAR     1.00       0          0          0          1
94               CIRCULAR     0.83       0          0          0          1
96               CIRCULAR     1.00       0          0          0          1
98               CIRCULAR     0.16       0          0          0          1
100              CIRCULAR     1.00       0          0          0          1
102              CIRCULAR     1.00       0          0          0          1
104              CIRCULAR     1.25       0          0          0          1
106              CIRCULAR     1.25       0          0          0          1
108              CIRCULAR     1.50       0          0          0          1
110              CIRCULAR     2.50       0          0          0          1
112              CIRCULAR     2.50       0          0          0          1
114              CIRCULAR     2.50       0          0          0          1
116              CIRCULAR     2.50       0          0          0          1
118              CIRCULAR     3.00       0          0          0          1
120              CIRCULAR     3.50       0          0          0          1
133              CIRCULAR     1.00       0          0          0          1
137              CIRCULAR     1.50       0          0          0          1
139              CIRCULAR     1.50       0          0          0          1
145              CIRCULAR     1.50       0          0          0          1
147              CIRCULAR     2.25       0          0          0          1
148              CIRCULAR     2.50       0          0          0          1
150              CIRCULAR     1.25       0          0          0          1
152              CIRCULAR     1.25       0          0          0          1
154              CIRCULAR     1.25       0          0          0          1
159              CIRCULAR     1.00       0          0          0          1
161              CIRCULAR     1.00       0          0          0          1
163              CIRCULAR     1.50       0          0          0          1
165              CIRCULAR     1.50       0          0          0          1
167              CIRCULAR     2.50       0          0          0          1
168              CIRCULAR     2.25       0          0          0          1
170              CIRCULAR     1.00       0          0          0          1
172              CIRCULAR     0.83       0          0          0          1
183              CIRCULAR     1.25       0          0          0          1
185              CIRCULAR     2.00       0          0          0          1
186              CIRCULAR     2.00       0          0          0          1
190              CIRCULAR     0.67       0          0          0          1
206              CIRCULAR     4.00       0          0          0          1
208              CIRCULAR     4.00       0          0          0          1
220              CIRCULAR     0.67       0          0          0          1
221              CIRCULAR     0.83       0          0          0          1
228              CIRCULAR     1.00       0          0          0          1
230              CIRCULAR     1.00       0          0          0          1
231              CIRCULAR     1.00       0          0          0          1
233              CIRCULAR     0.83       0          0          0          1
235              CIRCULAR     4.00       0          0          0          1
237              CIRCULAR     4.00       0          0          0          1
239              CIRCULAR     4.00       0          0          0          1
243              CIRCULAR     0.83       0          0          0          1
245              CIRCULAR     1.00       0          0          0          1
247              CIRCULAR     2.25       0          0          0          1
249              CIRCULAR     2.00       0          0          0          1
251              CIRCULAR     1.00       0          0          0          1
253              CIRCULAR     4.00       0          0          0          1
256              CIRCULAR     4.00       0          0          0          1
258              CIRCULAR     2.00       0          0          0          1
259              CIRCULAR     2.00       0          0          0          1
260              CIRCULAR     0.67       0          0          0          1
263              CIRCULAR     1.25       0          0          0          1
265              CIRCULAR     0.83       0          0          0          1
268              CIRCULAR     1.25       0          0          0          1
271              CIRCULAR     0.67       0          0          0          1
272              CIRCULAR     1.25       0          0          0          1
273              CIRCULAR     1.50       0          0          0          1
276              CIRCULAR     1.00       0          0          0          1
278              CIRCULAR     1.00       0          0          0          1

[LOSSES]
;;Link           Inlet      Outlet     Average    Flap Gate
;;-------------- ---------- ---------- ---------- ----------
86               0          0          0          NO
94               0          0          0          NO
96               0          0          0          NO
98               0          0          0          NO
100              0          0          0          NO
102              0          0          0          NO
104              0          0          0          NO
106              0          0          0          NO
108              0          0          0          NO
110              0          0          0          NO
112              0          0          0          NO
114              0          0          0          NO
116              0          0          0          NO
118              0          0          0          NO
120              0          0          0          NO
133              0          0          0          NO
137              0          0          0          NO
139              0          0          0          NO
145              0          0          0          NO
147              0          0          0          NO
148              0          0          0          NO
150              0          0          0          NO
152              0          0          0          NO
154              0          0          0          NO
159              0          0          0          NO
161              0          0          0          NO
163              0          0          0          NO
165              0          0          0          NO
167              0          0          0          NO
168              0          0          0          NO
170              0          0          0          NO
172              0          0          0          NO
183              0          0          0          NO
185              0          0          0          NO
186              0          0          0          NO
190              0          0          0          NO
206              0          0          0          NO
208              0          0          0          NO
220              0          0          0          NO
221              0          0          0          NO
228              0          0          0          NO
230              0          0          0          NO
231              0          0          0          NO
233              0          0          0          NO
235              0          0          0          NO
237              0          0          0          NO
239              0          0          0          NO
243              0          0          0          NO
245              0          0          0          NO
247              0          0          0          NO
249              0          0          0          NO
251              0          0          0          NO
253              0          0          0          NO
256              0          0          0          NO
258              0          0          0          NO
259              0          0          0          NO
260              0          0          0          NO
263              0          0          0          NO
265              0          0          0          NO
268              0          0          0          NO
271              0          0          0          NO
272              0          0          0          NO
273              0          0          0          NO
276              0          0          0          NO
278              0          0          0          NO

[COORDINATES]
;;Node           X-Coord            Y-Coord
;;-------------- ------------------ ------------------
mh42             73.41              36.47             
mh44             24.49              38.76             
mh81             20.86              95.59             
mh79             19.10              147.92            
mh78             21.66              198.94            
mh75             20.11              246.91            
mh32             17.91              295.72            
mh30             -30.46             297.32            
mh28             -80.42             297.32            
mh27             -81.02             338.95            
mh29             -51.95             338.06            
mh34             -18.00             343.40            
mh39             17.37              353.52            
mh41             25.10              396.24            
mh42a            27.41              443.96            
mh8              24.84              486.67            
mh46             -13.83             527.05            
mh51             -82.25             48.14             
mh65             -82.46             148.74            
mh71             -80.76             210.23            
mh64             -119.08            148.25            
mh63             -119.04            209.24            
mh62             -117.29            251.44            
mh24             -116.65            289.75            
mh23             -115.55            322.17            
mh74             -58.42             246.99            
mh58             -161.90            144.91            
mh69             -36.11             211.86            
mh67             -22.61             146.03            
mh26             -195.76            79.01             
mh22             -193.58            132.45            
mh18             -195.76            182.92            
mh15             -196.01            225.64            
mh14             -197.54            287.89            
mh17             -162.75            288.78            
mh60             -163.68            231.87            
mh17a            -253.86            177.62            
mh50             -130.70            575.40            
mh49             -128.27            524.00            
mh47             -76.32             524.68            
mh33             56.41              298.57            
mh10             118.14             488.16            
mh11             118.14             569.14            
mh12             115.54             636.77            
mh34a            99.14              197.87            
mh35             98.03              256.52            
mh76             60.53              247.00            
mh55             -82.24             89.63             
mh73             -80.02             258.35            
mh59             -163.19            182.87            
mh19             114.77             690.72            
mh1              114.09             757.17            
mh1a             114.94             806.00            
mh43             21.76              64.26             
mh80             18.35              132.39            
mh20             -142.16            287.39            
mh48             -108.86            523.29            
mh77             18.35              222.66            
mh9              98.60              486.67            
mh6              18.35              520.74            
mh66             -56.78             145.16            
mh56             -83.25             127.28            
mh57             -135.33            146.01            
mh16             -195.94            209.89            

[MAP]
DIMENSIONS -253.86 36.47 118.14 806.00
Units      None

[REPORT]
INPUT            YES
SUBCATCHMENTS    ALL
NODES            ALL
LINKS            ALL



