;; SWMM5 .inp converted from XPSWMM .xp file
;; Generated by XPSWMM Card Reader
;; Source format: XP_CARD | Original title: (none)

[TITLE]
;;Project Title/Notes
Converted from XPSWMM .xp file

[OPTIONS]
FLOW_UNITS           CFS
INFILTRATION         HORTON
FLOW_ROUTING         DYNWAVE
LINK_OFFSETS         DEPTH
MIN_SLOPE            0.0
ALLOW_PONDING        NO
SKIP_STEADY_STATE    NO
INERTIAL_DAMPING     PARTIAL
NORMAL_FLOW_LIMITED  BOTH

[JUNCTIONS]
;;Name           Elev       MaxDepth   InitDepth  SurDepth   Aponded
;;-------------- ---------- ---------- ---------- ---------- ----------
9207O            145.17     0          0          0          0
9206O            144.58     0          0          0          0
9205O            144.25     0          0          0          0
8403O            152.53     0          0          0          0
8401O            148.00     0          0          0          0
8406O            152.19     0          0          0          0
8402O            147.40     0          0          0          0
9199O            142.17     0          0          0          0
9198O            142.67     0          0          0          0
8591O            160.98     0          0          0          0
8592O            158.73     0          0          0          0
8644O            154.61     0          0          0          0
8647O            153.77     0          0          0          0
8648O            152.17     0          0          0          0
8645O            154.44     0          0          0          0
8649O            151.33     0          0          0          0
8652O            146.96     0          0          0          0
8650O            151.09     0          0          0          0
8653O            149.96     0          0          0          0
8651O            153.34     0          0          0          0
8654O            149.35     0          0          0          0
8656O            153.19     0          0          0          0
8657O            154.94     0          0          0          0
8655O            149.04     0          0          0          0
8582O            146.07     0          0          0          0
8581O            147.53     0          0          0          0
8580O            149.00     0          0          0          0
8506O            179.89     0          0          0          0
8507O            177.11     0          0          0          0
8510O            180.11     0          0          0          0
8511O            178.79     0          0          0          0
8490O            175.60     0          0          0          0
8492O            176.21     0          0          0          0
8491O            171.74     0          0          0          0
8497O            169.68     0          0          0          0
8498O            167.81     0          0          0          0
8499O            170.81     0          0          0          0
8500O            174.71     0          0          0          0
8501O            176.27     0          0          0          0
8503O            169.50     0          0          0          0
8502O            166.21     0          0          0          0
8518O            164.24     0          0          0          0
8520O            166.02     0          0          0          0
8519O            163.73     0          0          0          0
8587O            163.26     0          0          0          0
8588O            162.27     0          0          0          0
8523O            165.64     0          0          0          0
8522O            167.20     0          0          0          0
8521O            168.92     0          0          0          0
8508O            174.32     0          0          0          0
8517O            169.84     0          0          0          0
8509O            174.36     0          0          0          0
8512O            177.52     0          0          0          0
8513O            177.70     0          0          0          0
8514O            172.00     0          0          0          0
8515O            167.00     0          0          0          0
8516O            165.10     0          0          0          0
8596O            163.97     0          0          0          0
8597O            162.85     0          0          0          0
8598O            161.69     0          0          0          0
8600O            167.50     0          0          0          0
8599O            160.52     0          0          0          0
8601O            159.03     0          0          0          0
8602O            157.57     0          0          0          0
8603O            156.92     0          0          0          0
8604O            156.54     0          0          0          0
8595O            157.18     0          0          0          0
8594O            157.67     0          0          0          0
8593O            158.11     0          0          0          0
8622O            156.33     0          0          0          0
8623O            155.70     0          0          0          0
8608O            162.54     0          0          0          0
8607O            163.69     0          0          0          0
8606O            164.99     0          0          0          0
8605O            166.29     0          0          0          0
8609O            160.55     0          0          0          0
8646O            154.91     0          0          0          0
8631O            154.51     0          0          0          0

[CONDUITS]
;;Name           From             To               Length     Roughness  InOffset   OutOffset  InitFlow   MaxFlow
;;-------------- ---------------- ---------------- ---------- ---------- ---------- ---------- ---------- ----------
9207P            9207O            ?                207.00     0.0130     145.17     144.58     0          0
9206P            9206O            ?                105.00     0.0130     144.58     144.25     0          0
9205P            9205O            ?                260.00     0.0130     144.25     143.52     0          0
8403P            8403O            ?                232.00     0.0130     152.53     152.19     0          0
8401P            8401O            ?                200.00     0.0130     148.00     147.40     0          0
8406P            8406O            ?                57.00      0.0130     152.19     152.02     0          0
8402P            8402O            ?                300.00     0.0130     147.40     146.55     0          0
9199P            9199O            ?                312.00     0.0130     142.17     140.60     0          0
9198P            9198O            ?                165.00     0.0130     142.67     142.17     0          0
8591P            8591O            ?                250.00     0.0130     160.98     160.23     0          0
8592P            8592O            ?                263.00     0.0130     158.73     158.11     0          0
8644P            8644O            ?                210.00     0.0130     154.61     153.77     0          0
8647P            8647O            ?                621.00     0.0130     153.77     151.33     0          0
8648P            8648O            ?                264.00     0.0130     152.17     151.33     0          0
8645P            8645O            ?                190.00     0.0130     154.44     153.77     0          0
8649P            8649O            ?                499.00     0.0130     151.33     150.26     0          0
8652P            8652O            ?                27.00      0.0130     146.96     149.96     0          0
8650P            8650O            ?                260.00     0.0130     151.09     150.26     0          0
8653P            8653O            ?                290.00     0.0130     149.96     149.35     0          0
8651P            8651O            ?                300.00     0.0130     153.34     151.09     0          0
8654P            8654O            ?                145.00     0.0130     149.35     149.04     0          0
8656P            8656O            ?                295.00     0.0130     153.19     149.35     0          0
8657P            8657O            ?                292.00     0.0130     154.94     153.19     0          0
8655P            8655O            ?                610.00     0.0130     149.04     147.76     0          0
8582P            8582O            ?                161.00     0.0130     146.07     145.29     0          0
8581P            8581O            ?                280.00     0.0130     147.53     146.07     0          0
8580P            8580O            ?                245.00     0.0130     149.00     147.53     0          0
8506P            8506O            ?                464.00     0.0130     179.89     177.11     0          0
8507P            8507O            ?                464.00     0.0130     177.11     174.32     0          0
8510P            8510O            ?                264.00     0.0130     180.11     178.79     0          0
8511P            8511O            ?                253.00     0.0130     178.79     177.52     0          0
8490P            8490O            ?                274.00     0.0130     175.60     173.96     0          0
8492P            8492O            ?                400.00     0.0130     176.21     173.98     0          0
8491P            8491O            ?                343.00     0.0130     171.74     169.68     0          0
8497P            8497O            ?                313.00     0.0130     169.68     167.81     0          0
8498P            8498O            ?                285.00     0.0130     167.81     166.21     0          0
8499P            8499O            ?                270.00     0.0130     170.81     167.81     0          0
8500P            8500O            ?                260.00     0.0130     174.71     170.81     0          0
8501P            8501O            ?                260.00     0.0130     176.27     174.71     0          0
8503P            8503O            ?                264.00     0.0130     169.50     167.92     0          0
8502P            8502O            ?                820.00     0.0130     166.21     164.24     0          0
8518P            8518O            ?                212.00     0.0130     164.24     163.73     0          0
8520P            8520O            ?                260.00     0.0130     166.02     164.98     0          0
8519P            8519O            ?                196.00     0.0130     163.73     163.26     0          0
8587P            8587O            ?                260.00     0.0130     163.26     162.27     0          0
8588P            8588O            ?                270.00     0.0130     162.27     161.14     0          0
8523P            8523O            ?                273.00     0.0130     165.64     164.00     0          0
8522P            8522O            ?                260.00     0.0130     167.20     165.64     0          0
8521P            8521O            ?                245.00     0.0130     168.92     167.20     0          0
8508P            8508O            ?                265.00     0.0130     174.32     171.94     0          0
8517P            8517O            ?                803.00     0.0130     169.84     167.00     0          0
8509P            8509O            ?                242.00     0.0130     174.36     171.94     0          0
8512P            8512O            ?                405.00     0.0130     177.52     175.90     0          0
8513P            8513O            ?                284.00     0.0130     177.70     176.00     0          0
8514P            8514O            ?                260.00     0.0130     172.00     170.70     0          0
8515P            8515O            ?                270.00     0.0130     167.00     165.10     0          0
8516P            8516O            ?                250.00     0.0130     165.10     163.97     0          0
8596P            8596O            ?                249.00     0.0130     163.97     162.85     0          0
8597P            8597O            ?                258.00     0.0130     162.85     161.69     0          0
8598P            8598O            ?                260.00     0.0130     161.69     160.52     0          0
8600P            8600O            ?                393.00     0.0130     167.50     163.55     0          0
8599P            8599O            ?                271.00     0.0130     160.52     159.03     0          0
8601P            8601O            ?                250.00     0.0130     159.03     157.65     0          0
8602P            8602O            ?                263.00     0.0130     157.57     156.92     0          0
8603P            8603O            ?                150.00     0.0130     156.92     156.54     0          0
8604P            8604O            ?                158.00     0.0130     156.54     156.14     0          0
8595P            8595O            ?                260.00     0.0130     157.18     156.37     0          0
8594P            8594O            ?                260.00     0.0130     157.67     157.18     0          0
8593P            8593O            ?                260.00     0.0130     158.11     157.67     0          0
8622P            8622O            ?                250.00     0.0130     156.33     155.70     0          0
8623P            8623O            ?                69.00      0.0130     155.70     155.51     0          0
8608P            8608O            ?                187.00     0.0130     162.54     161.60     0          0
8607P            8607O            ?                230.00     0.0130     163.69     162.54     0          0
8606P            8606O            ?                260.00     0.0130     164.99     163.69     0          0
8605P            8605O            ?                260.00     0.0130     166.29     164.99     0          0
8609P            8609O            ?                271.00     0.0130     160.55     159.60     0          0
8646P            8646O            ?                135.00     0.0130     154.91     154.44     0          0
8631P            8631O            ?                216.00     0.0130     154.51     154.13     0          0

[XSECTIONS]
;;Link           Shape        Geom1      Geom2      Geom3      Geom4      Barrels
;;-------------- ------------ ---------- ---------- ---------- ---------- ----------
9207P            RECT_CLOSED  3.00       2.00       0          0          1
9206P            CIRCULAR     2.25       0          0          0          1
9205P            CIRCULAR     2.25       0          0          0          1
8403P            CIRCULAR     1.25       0          0          0          1
8401P            CIRCULAR     1.00       0          0          0          1
8406P            CIRCULAR     1.25       0          0          0          1
8402P            CIRCULAR     1.00       0          0          0          1
9199P            CIRCULAR     1.50       0          0          0          1
9198P            CIRCULAR     1.50       0          0          0          1
8591P            CIRCULAR     1.00       0          0          0          1
8592P            CIRCULAR     2.50       0          0          0          1
8644P            CIRCULAR     0.83       0          0          0          1
8647P            CIRCULAR     1.25       0          0          0          1
8648P            CIRCULAR     1.00       0          0          0          1
8645P            CIRCULAR     1.00       0          0          0          1
8649P            CIRCULAR     1.75       0          0          0          1
8652P            CIRCULAR     2.25       0          0          0          1
8650P            CIRCULAR     1.00       0          0          0          1
8653P            CIRCULAR     2.25       0          0          0          1
8651P            CIRCULAR     0.67       0          0          0          1
8654P            CIRCULAR     2.25       0          0          0          1
8656P            CIRCULAR     0.83       0          0          0          1
8657P            CIRCULAR     0.67       0          0          0          1
8655P            CIRCULAR     2.25       0          0          0          1
8582P            CIRCULAR     1.00       0          0          0          1
8581P            CIRCULAR     0.83       0          0          0          1
8580P            CIRCULAR     0.67       0          0          0          1
8506P            CIRCULAR     0.83       0          0          0          1
8507P            CIRCULAR     0.83       0          0          0          1
8510P            CIRCULAR     1.00       0          0          0          1
8511P            CIRCULAR     1.00       0          0          0          1
8490P            CIRCULAR     1.25       0          0          0          1
8492P            CIRCULAR     1.00       0          0          0          1
8491P            CIRCULAR     1.25       0          0          0          1
8497P            CIRCULAR     1.25       0          0          0          1
8498P            CIRCULAR     1.75       0          0          0          1
8499P            CIRCULAR     1.00       0          0          0          1
8500P            CIRCULAR     0.83       0          0          0          1
8501P            CIRCULAR     0.83       0          0          0          1
8503P            CIRCULAR     0.83       0          0          0          1
8502P            CIRCULAR     2.00       0          0          0          1
8518P            CIRCULAR     2.00       0          0          0          1
8520P            CIRCULAR     0.83       0          0          0          1
8519P            CIRCULAR     2.00       0          0          0          1
8587P            CIRCULAR     2.00       0          0          0          1
8588P            CIRCULAR     2.00       0          0          0          1
8523P            CIRCULAR     1.25       0          0          0          1
8522P            CIRCULAR     1.25       0          0          0          1
8521P            CIRCULAR     1.00       0          0          0          1
8508P            CIRCULAR     0.83       0          0          0          1
8517P            CIRCULAR     1.25       0          0          0          1
8509P            CIRCULAR     1.25       0          0          0          1
8512P            CIRCULAR     1.25       0          0          0          1
8513P            CIRCULAR     1.00       0          0          0          1
8514P            CIRCULAR     1.00       0          0          0          1
8515P            CIRCULAR     1.50       0          0          0          1
8516P            CIRCULAR     1.75       0          0          0          1
8596P            CIRCULAR     1.75       0          0          0          1
8597P            CIRCULAR     1.75       0          0          0          1
8598P            CIRCULAR     1.75       0          0          0          1
8600P            CIRCULAR     0.83       0          0          0          1
8599P            CIRCULAR     1.75       0          0          0          1
8601P            CIRCULAR     1.75       0          0          0          1
8602P            CIRCULAR     2.00       0          0          0          1
8603P            CIRCULAR     2.00       0          0          0          1
8604P            CIRCULAR     2.00       0          0          0          1
8595P            CIRCULAR     2.50       0          0          0          1
8594P            CIRCULAR     2.50       0          0          0          1
8593P            CIRCULAR     2.50       0          0          0          1
8622P            CIRCULAR     2.75       0          0          0          1
8623P            CIRCULAR     2.75       0          0          0          1
8608P            CIRCULAR     0.83       0          0          0          1
8607P            CIRCULAR     0.83       0          0          0          1
8606P            CIRCULAR     0.83       0          0          0          1
8605P            CIRCULAR     0.83       0          0          0          1
8609P            CIRCULAR     0.83       0          0          0          1
8646P            CIRCULAR     1.00       0          0          0          1
8631P            CIRCULAR     3.00       0          0          0          1

[LOSSES]
;;Link           Inlet      Outlet     Average    Flap Gate
;;-------------- ---------- ---------- ---------- ----------
9207P            0          0          0          NO
9206P            0          0          0          NO
9205P            0          0          0          NO
8403P            0          0          0          NO
8401P            0          0          0          NO
8406P            0          0          0          NO
8402P            0          0          0          NO
9199P            0          0          0          NO
9198P            0          0          0          NO
8591P            0          0          0          NO
8592P            0          0          0          NO
8644P            0          0          0          NO
8647P            0          0          0          NO
8648P            0          0          0          NO
8645P            0          0          0          NO
8649P            0          0          0          NO
8652P            0          0          0          NO
8650P            0          0          0          NO
8653P            0          0          0          NO
8651P            0          0          0          NO
8654P            0          0          0          NO
8656P            0          0          0          NO
8657P            0          0          0          NO
8655P            0          0          0          NO
8582P            0          0          0          NO
8581P            0          0          0          NO
8580P            0          0          0          NO
8506P            0          0          0          NO
8507P            0          0          0          NO
8510P            0          0          0          NO
8511P            0          0          0          NO
8490P            0          0          0          NO
8492P            0          0          0          NO
8491P            0          0          0          NO
8497P            0          0          0          NO
8498P            0          0          0          NO
8499P            0          0          0          NO
8500P            0          0          0          NO
8501P            0          0          0          NO
8503P            0          0          0          NO
8502P            0          0          0          NO
8518P            0          0          0          NO
8520P            0          0          0          NO
8519P            0          0          0          NO
8587P            0          0          0          NO
8588P            0          0          0          NO
8523P            0          0          0          NO
8522P            0          0          0          NO
8521P            0          0          0          NO
8508P            0          0          0          NO
8517P            0          0          0          NO
8509P            0          0          0          NO
8512P            0          0          0          NO
8513P            0          0          0          NO
8514P            0          0          0          NO
8515P            0          0          0          NO
8516P            0          0          0          NO
8596P            0          0          0          NO
8597P            0          0          0          NO
8598P            0          0          0          NO
8600P            0          0          0          NO
8599P            0          0          0          NO
8601P            0          0          0          NO
8602P            0          0          0          NO
8603P            0          0          0          NO
8604P            0          0          0          NO
8595P            0          0          0          NO
8594P            0          0          0          NO
8593P            0          0          0          NO
8622P            0          0          0          NO
8623P            0          0          0          NO
8608P            0          0          0          NO
8607P            0          0          0          NO
8606P            0          0          0          NO
8605P            0          0          0          NO
8609P            0          0          0          NO
8646P            0          0          0          NO
8631P            0          0          0          NO

[REPORT]
INPUT            YES
SUBCATCHMENTS    ALL
NODES            ALL
LINKS            ALL



