;; SWMM5 .inp converted from XPSWMM .xp file
;; Generated by XPSWMM Card Reader
;; Source format: XP_CARD | Original title: (none)

[TITLE]
;;Project Title/Notes
Converted from XPSWMM .xp file

[OPTIONS]
FLOW_UNITS           CFS
INFILTRATION         HORTON
FLOW_ROUTING         DYNWAVE
LINK_OFFSETS         DEPTH
MIN_SLOPE            0.0
ALLOW_PONDING        NO
SKIP_STEADY_STATE    NO
ROUTING_STEP         00:00:04
VARIABLE_STEP        0.75
INERTIAL_DAMPING     PARTIAL
NORMAL_FLOW_LIMITED  BOTH
MAX_TRIALS           50
HEAD_TOLERANCE       0.0033

[JUNCTIONS]
;;Name           Elev       MaxDepth   InitDepth  SurDepth   Aponded
;;-------------- ---------- ---------- ---------- ---------- ----------
J4019            15.00      0          0          0          0
J168             15.00      0          0          0          0
J2168            15.00      0          0          0          0
J2187A           15.00      0          0          0          0
J3187A           15.00      0          0          0          0
J5187A           15.00      0          0          0          0
J3548            15.00      0          0          0          0
J187A            15.00      0          0          0          0
J187C            15.00      0          0          0          0
J2187B           15.00      0          0          0          0
J187             15.00      0          0          0          0
J105             15.00      0          0          0          0
J2105            15.00      0          0          0          0
J111             15.00      0          0          0          0
J2111            15.00      0          0          0          0
J3111            15.00      0          0          0          0
J4111            15.00      0          0          0          0
J3175            15.00      0          0          0          0
J2163            15.00      0          0          0          0
R14-AC1          20.00      0          0          0          0
J2139            15.00      0          0          0          0
J2109            15.00      0          0          0          0
J163             15.00      0          0          0          0
J109             15.00      0          0          0          0
J129             15.00      0          0          0          0
J2129            15.00      0          0          0          0
J3120            15.00      0          0          0          0
J2120            15.00      0          0          0          0
J120             15.00      0          0          0          0
J4160            15.00      0          0          0          0
J2128            15.00      0          0          0          0
J2149            15.00      0          0          0          0
J128             15.00      0          0          0          0
J126             15.00      0          0          0          0
J2126            15.00      0          0          0          0
J127             15.00      0          0          0          0
J2125            15.00      0          0          0          0
J125             15.00      0          0          0          0
J149             15.00      0          0          0          0
J3142            15.00      0          0          0          0
J2142            15.00      0          0          0          0
S14-AC2          20.00      0          0          0          0
J142             15.00      0          0          0          0
T15-AC2          15.00      0          0          0          0
J3544            15.00      0          0          0          0
J3685            15.00      0          0          0          0
T16-AC2          15.00      0          0          0          0
T18-AC1          20.00      0          0          0          0
J41047           15.00      0          0          0          0
J151             15.00      0          0          0          0
J2187D           15.00      0          0          0          0
J2187C           15.00      0          0          0          0
J683             15.00      0          0          0          0
J579             15.00      0          0          0          0
J2896            15.00      0          0          0          0
J2524            15.00      0          0          0          0
J896             15.00      0          0          0          0
J524             15.00      0          0          0          0
J554             15.00      0          0          0          0
J4809            15.00      0          0          0          0
J7829            15.00      0          18.00      0          0
M-107            15.00      0          0          0          0
J4187A           15.00      0          0          0          0
JCEAST1          50.00      0          0          0          0
J938             15.00      0          0          0          0
J2398            15.00      0          0          0          0
J6938            15.00      0          0          0          0
J2198            15.00      0          0          0          0
J2201            15.00      0          0          0          0
J4196            15.00      0          0          0          0
J2196            15.00      0          0          0          0
J3938            15.00      0          0          0          0
J4938            15.00      0          0          0          0
J201             15.00      0          0          0          0
J188             15.00      0          0          0          0
J5123            15.00      0          0          0          0
J1145            15.00      0          0          0          0
J2161            15.00      0          0          0          0
J4161            15.00      0          0          0          0
J2199            15.00      0          0          0          0
J2123            15.00      0          0          0          0
S12-AC1          15.00      0          0          0          0
J172             15.00      0          0          0          0
J3161            15.00      0          0          0          0
J161             15.00      0          0          0          0
J199             15.00      0          0          0          0
J3166            15.00      0          0          0          0
J2166            15.00      0          0          0          0
J4197            15.00      0          0          0          0
J2014            15.00      0          0          0          0
J2165            15.00      0          0          0          0
J2108            15.00      0          0          0          0
J165             15.00      0          0          0          0
J108             15.00      0          0          0          0
J14              15.00      0          0          0          0
J197             15.00      0          0          0          0
J2197            15.00      0          0          0          0
J2110            15.00      0          0          0          0
J2169            15.00      0          0          0          0
Q12-AC2          15.00      0          0          0          0
J2150            15.00      0          0          0          0
J3162            15.00      0          0          0          0
J2148            15.00      0          0          0          0
J169             15.00      0          0          0          0
PVT10065         15.00      0          0          0          0
J3158            15.00      0          0          0          0
J158             15.00      0          0          0          0
J148             15.00      0          0          0          0
J202             15.00      0          0          0          0
J203             15.00      0          0          0          0
J119             15.00      0          0          0          0
J3116            15.00      0          0          0          0
J3143            15.00      0          0          0          0
J2124            15.00      0          0          0          0
J2116            15.00      0          0          0          0
J140             15.00      0          0          0          0
J2143            15.00      0          0          0          0
J2147            15.00      0          0          0          0
J2175            15.00      0          0          0          0
J147             15.00      0          0          0          0
J175             15.00      0          0          0          0
J159             15.00      0          0          0          0
J2162            15.00      0          0          0          0
J162             15.00      0          0          0          0
J2173            15.00      0          0          0          0
J2189            15.00      0          0          0          0
J173             15.00      0          0          0          0
J189             15.00      0          0          0          0
J2155            15.00      0          0          0          0
J3174            15.00      0          0          0          0
J174             15.00      0          0          0          0
J2174            15.00      0          0          0          0
J3155            15.00      0          0          0          0
J160             15.00      0          0          0          0
J121             15.00      0          0          0          0
J3154            15.00      0          0          0          0
J157             15.00      0          0          0          0
J2157            15.00      0          0          0          0
J114             15.00      0          0          0          0
J2113            15.00      0          0          0          0
J2114            15.00      0          0          0          0
J27              15.00      0          0          0          0
J2026            15.00      0          0          0          0
J118             15.00      0          0          0          0
J195             15.00      0          0          0          0
J2195            15.00      0          0          0          0
J3195            15.00      0          0          0          0
J2194            15.00      0          0          0          0
J194             15.00      0          0          0          0
J2160            15.00      0          0          0          0
J28              15.00      0          0          0          0
J2154            15.00      0          0          0          0
PVT204           15.00      0          0          0          0
JPVT204          15.00      0          0          0          0
J2159            15.00      0          0          0          0
J4162            15.00      0          0          0          0
J4154            15.00      0          0          0          0
N12-AC2          15.00      0          0          0          0
J193             15.00      0          0          0          0
J2948            15.00      0          0          0          0
J948             15.00      0          0          0          0
J2140            15.00      0          0          0          0
J3140            15.00      0          0          0          0
M-18             15.00      0          0          0          0
PVT408           15.00      0          0          0          0
J7938            15.00      0          0          0          0
PVT54            15.00      0          0          0          0
J3197            15.00      0          0          0          0
PVT10028         15.00      0          0          0          0
PVT10027         15.00      0          0          0          0
PVT217           15.00      0          0          0          0
J3108            15.00      0          0          0          0
PVT94            15.00      0          0          0          0
J2PVT43          15.00      0          0          0          0
J5154            15.00      0          0          0          0
PVT43            15.00      0          0          0          0
PVT349           15.00      0          0          0          0
PVT175           15.00      0          0          0          0
J2187AA          15.00      0          0          0          0
R12-AC2          15.00      0          0          0          0
J21078           15.00      0          0          0          0
J1078            15.00      0          0          0          0
SS559            25.00      0          15.00      0          0
J834             15.00      0          0          0          0
J2824            15.00      0          0          0          0
J2823            15.00      0          0          0          0
J2804            15.00      0          0          0          0
J804             15.00      0          0          0          0
J822             15.00      0          0          0          0
J3822            15.00      0          0          0          0
J818             15.00      0          0          0          0
J2818            15.00      0          0          0          0
J2815            15.00      0          0          0          0
J3581            15.00      0          0          0          0
J815             15.00      0          0          0          0
J800             15.00      0          0          0          0
J2800            15.00      0          0          0          0
J798             15.00      0          0          0          0
J2798            15.00      0          0          0          0
P19-AC2          15.00      0          0          0          0
J799             15.00      0          0          0          0
J2797            15.00      0          0          0          0
J797             15.00      0          0          0          0
J795             15.00      0          0          0          0
J3795            15.00      0          0          0          0
J505             15.00      0          0          0          0
J2505            15.00      0          0          0          0
J2816            15.00      0          0          0          0
J817             15.00      0          0          0          0
J816             15.00      0          0          0          0
J581             15.00      0          0          0          0
J2581            15.00      0          0          0          0
J788             15.00      0          0          0          0
J893             15.00      0          0          0          0
PVT386           15.00      0          0          0          0
J2789            15.00      0          0          0          0
J895             15.00      0          0          0          0
J789             15.00      0          0          0          0
J807             15.00      0          0          0          0
J2807            15.00      0          0          0          0
J2803            15.00      0          0          0          0
J2820            15.00      0          0          0          0
J803             15.00      0          0          0          0
PVT19&390        15.00      0          0          0          0
J11807           15.00      0          0          0          0
J825             15.00      0          0          0          0
J2825            15.00      0          0          0          0
J2865            15.00      0          0          0          0
J831             15.00      0          0          0          0
J3831            15.00      0          0          0          0
J3826            15.00      0          0          0          0
J4826            15.00      0          0          0          0
J884             15.00      0          0          0          0
J2884            15.00      0          0          0          0
J826             15.00      0          0          0          0
J881             15.00      0          0          0          0
J865             15.00      0          0          0          0
J2526            15.00      0          0          0          0
J839             15.00      0          0          0          0
J830             15.00      0          0          0          0
J827             15.00      0          0          0          0
J828             15.00      0          0          0          0
J526             15.00      0          0          0          0
J809             15.00      0          0          0          0
J2809            15.00      0          0          0          0
J3809            15.00      0          0          0          0
J2808            15.00      0          0          0          0
J506             15.00      0          0          0          0
J808             15.00      0          0          0          0
J693             15.00      0          0          0          0
J2812            15.00      0          0          0          0
R19-AC2          15.00      0          0          0          0
J812             15.00      0          0          0          0
J843             15.00      0          0          0          0
J2843            15.00      0          0          0          0
J3842            15.00      0          0          0          0
J1840            15.00      0          0          0          0
J2899            15.00      0          0          0          0
J885             15.00      0          0          0          0
J2841            15.00      0          0          0          0
J2842            15.00      0          0          0          0
J899             15.00      0          0          0          0
J2838            15.00      0          0          0          0
J2835            15.00      0          0          0          0
J836             15.00      0          0          0          0
J835             15.00      0          0          0          0
J824             15.00      0          0          0          0
J1833            15.00      0          0          0          0
J794             15.00      0          0          0          0
J3794            15.00      0          0          0          0
J1791            15.00      0          0          0          0
J1792            15.00      0          0          0          0
J793             15.00      0          0          0          0
J2793            15.00      0          0          0          0
J2509            15.00      0          0          0          0
J810             15.00      0          0          0          0
J2810            15.00      0          0          0          0
J509             15.00      0          0          0          0
J4509            15.00      0          0          0          0
J697             15.00      0          0          0          0
J2697            15.00      0          0          0          0
J2811            15.00      0          0          0          0
J811             15.00      0          0          0          0
J952             15.00      0          0          0          0
J2819            15.00      0          0          0          0
J752             15.00      0          0          0          0
J2763            15.00      0          0          0          0
N19-AC1          15.00      0          0          0          0
J1802            15.00      0          0          0          0
J2801            15.00      0          0          0          0
J3801            15.00      0          0          0          0
J2796            15.00      0          0          0          0
J1796            15.00      0          0          0          0
J787             15.00      0          0          0          0
J805             15.00      0          0          0          0
Q22-AC2          15.00      0          0          0          0
J832             15.00      0          0          0          0
J806             15.00      0          0          0          0
J2806            15.00      0          0          0          0
J31076           15.00      0          0          0          0
J3756            15.00      0          0          0          0
J11076           15.00      0          0          0          0
J756             15.00      0          0          0          0
J1820            15.00      0          0          0          0
J823             15.00      0          0          0          0
J821             15.00      0          0          0          0
PVT516&ETC       15.00      0          0          0          0
J21076           15.00      0          0          0          0
J1801            15.00      0          0          0          0
J2752            15.00      0          0          0          0
J829             15.00      0          0          0          0
J3829            15.00      0          0          0          0
J4829            15.00      0          0          0          0
J2794            15.00      0          0          0          0
J2952            15.00      0          0          0          0
J614             15.00      0          0          0          0
J2614            15.00      0          0          0          0
J3614            15.00      0          0          0          0
J837             15.00      0          0          0          0
J3571            15.00      0          0          0          0
J4812            15.00      0          0          0          0
J790             15.00      0          0          0          0
J3526            15.00      0          0          0          0
J6829            15.00      0          0          0          0
J3808            15.00      0          0          0          0
J4526            15.00      0          0          0          0
J3830            15.00      0          0          0          0
J3802            15.00      0          0          0          0
J4820            15.00      0          0          0          0
J5820            15.00      0          17.00      0          0
J41076           15.00      0          0          0          0
J61076           15.00      0          0          0          0
J6834            15.00      0          0          0          0
J4834            15.00      0          0          0          0
J5834            15.00      0          0          0          0
J593             15.00      0          0          0          0
J2822            15.00      0          0          0          0
J2881            15.00      0          0          0          0
PVT104           15.00      0          0          0          0
J3509            15.00      0          0          0          0
PVT227           15.00      0          0          0          0
PVT66            15.00      0          0          0          0
PVT126           15.00      0          0          0          0
PVT2             15.00      0          0          0          0
J12581           15.00      0          0          0          0
J14581           15.00      0          0          0          0
J16581           15.00      0          0          0          0
PVT7             15.00      0          0          0          0
PVT403           15.00      0          0          0          0
J12819           15.00      0          0          0          0
PVT107           15.00      0          0          0          0
PVT10048         15.00      0          0          0          0
PVT420           15.00      0          0          0          0
J2893            15.00      0          0          0          0
J7820            15.00      0          0          0          0
PVT481&ETC       15.00      0          0          0          0
PVT73            15.00      0          0          0          0
PVT521           15.00      0          0          0          0
J5756            15.00      0          0          0          0
PVT364           15.00      0          0          0          0
J4756            15.00      0          0          0          0
PVT202&295       15.00      0          0          0          0
J2756            15.00      0          0          0          0
PVT199           15.00      0          0          0          0
PVT404           15.00      0          0          0          0
J71076           15.00      0          0          0          0
PVT22            15.00      0          0          0          0
J101076          15.00      0          0          0          0
PVT524           15.00      0          0          0          0
PVT208           15.00      0          0          0          0
982              15.00      0          0          0          0
PVT56            15.00      0          0          0          0
J5826            15.00      0          0          0          0
PVT519           15.00      0          0          0          0
J3865            15.00      0          0          0          0
PVT93&122        15.00      0          0          0          0
J4835            15.00      0          0          0          0
PVT395           15.00      0          0          0          0
J3835            15.00      0          0          0          0
PVT143           15.00      0          0          0          0
J6808            15.00      0          0          0          0
PVT356           15.00      0          0          0          0
J12830           15.00      0          0          0          0
PVT9             15.00      0          0          0          0
J4794            15.00      0          0          0          0
J1077            15.00      0          0          0          0
J1776            15.00      0          0          0          0
J2777            15.00      0          0          0          0
J2775            15.00      0          0          0          0
J1777            15.00      0          0          0          0
J539             15.00      0          0          0          0
J778             15.00      0          0          0          0
J775             15.00      0          0          0          0
J783             15.00      0          0          0          0
J2783            15.00      0          0          0          0
J782             15.00      0          0          0          0
J3775            15.00      0          0          0          0
J759             15.00      0          0          0          0
J2744            15.00      0          0          0          0
J784             15.00      0          0          0          0
J5784            15.00      0          0          0          0
J786             15.00      0          0          0          0
J774             15.00      0          0          0          0
J544             15.00      0          0          0          0
J2544            15.00      0          0          0          0
J675             15.00      0          0          0          0
J2675            15.00      0          0          0          0
J1758            15.00      0          0          0          0
J3758            15.00      0          0          0          0
J1779            15.00      0          0          0          0
J2813            15.00      0          0          0          0
J762             15.00      0          0          0          0
J1674            15.00      0          0          0          0
J10674           15.00      0          0          0          0
J666             15.00      0          0          0          0
J694             15.00      0          0          0          0
J814             15.00      0          0          0          0
J754             15.00      0          0          0          0
J1761            15.00      0          0          0          0
J2761            15.00      0          0          0          0
J1764            15.00      0          0          0          0
J2764            15.00      0          0          0          0
J3599            15.00      0          0          0          0
J561             15.00      0          0          0          0
J1599            15.00      0          0          0          0
J550             15.00      0          0          0          0
J2567            15.00      0          0          0          0
J567             15.00      0          0          0          0
J598             15.00      0          0          0          0
J2599            15.00      0          0          0          0
J753             15.00      0          0          0          0
J760             15.00      0          0          0          0
J2755            15.00      0          0          0          0
J773             15.00      0          0          0          0
J2771            15.00      0          0          0          0
J772             15.00      0          0          0          0
J768             15.00      0          0          0          0
J769             15.00      0          0          0          0
J765             15.00      0          0          0          0
J785             15.00      0          0          0          0
J3761            15.00      0          0          0          0
J4764            15.00      0          0          0          0
J781             15.00      0          0          0          0
J6548            15.00      0          0          0          0
J2548            15.00      0          0          0          0
J3518            15.00      0          0          0          0
J518             15.00      0          0          0          0
J5764            15.00      0          0          0          0
PVT23            15.00      0          0          0          0
J3760            15.00      0          0          0          0
J3766            15.00      0          0          0          0
J766             15.00      0          0          0          0
J2766            15.00      0          0          0          0
J5767            15.00      0          0          0          0
J767             15.00      0          0          0          0
J2767            15.00      0          0          0          0
J4767            15.00      0          0          0          0
J2674            15.00      0          0          0          0
J3777            15.00      0          0          0          0
J5777            15.00      0          0          0          0
J5765            15.00      0          0          0          0
PVT00109         15.00      0          0          0          0
J2754            15.00      0          0          0          0
PVT00388         15.00      0          0          0          0
PVT00398         15.00      0          0          0          0