;; SWMM5 .inp converted from XPSWMM .xp file
;; Generated by XPSWMM Card Reader
;; Source format: XP_CARD | Original title: MCWD 100yr 10day storm over lower watershed

[TITLE]
;;Project Title/Notes
MCWD 100yr 10day storm over lower watershed

[OPTIONS]
FLOW_UNITS           CFS
INFILTRATION         HORTON
FLOW_ROUTING         DYNWAVE
LINK_OFFSETS         DEPTH
MIN_SLOPE            0.0
ALLOW_PONDING        NO
SKIP_STEADY_STATE    NO
ROUTING_STEP         00:00:200
VARIABLE_STEP        0.75
INERTIAL_DAMPING     PARTIAL
NORMAL_FLOW_LIMITED  BOTH
MAX_TRIALS           500

[JUNCTIONS]
;;Name           Elev       MaxDepth   InitDepth  SurDepth   Aponded
;;-------------- ---------- ---------- ---------- ---------- ----------
MC-1             970.00     0          0          0          0
MC-3             964.00     0          0          0          0
MC-4             950.00     0          1.50       0          0
MC-5             954.00     0          0          0          0
MC-7             954.00     0          0          0          0
MC-8             944.00     0          0          0          0
MC-6             958.00     0          0          0          0
MC-2             964.00     0          0          0          0
MC-18            968.00     0          0          0          0
MC-20            963.00     0          0          0          0
MC-19            952.00     0          1.60       0          0
MC-23            938.00     0          0          0          0
MC-25            938.00     0          0          0          0
MC-21            940.00     0          0          0          0
MC-10            1028.00    0          1.00       0          0
MC-16            940.00     0          1.30       0          0
MC-17            956.50     0          0          0          0
MC-28            940.00     0          0          0          0
MC-9             940.00     0          0.60       0          0
MC-11            938.00     0          0          0          0
MC-12            960.50     0          0.70       0          0
MC-15            960.50     0          0.80       0          0
MC-13            948.00     0          0          0          0
MC-14            950.00     0          0.20       0          0
MC-31            918.00     0          0          0          0
MC-32            923.90     0          0          0          0
MC-37            941.50     0          0.60       0          0
MC-41            920.00     0          0          0          0
MC-43            920.00     0          3.10       0          0
MC-53            920.00     0          3.20       0          0
MC-45            942.00     0          1.20       0          0
MC-46            940.00     0          0          0          0
MC-52            930.00     0          1.49       0          0
MC-22            940.00     0          0          0          0
MC-30            918.00     0          0          0          0
MC-34            922.00     0          0.60       0          0
MC-27            940.00     0          0.60       0          0
MC-36            918.00     0          0          0          0
MC-40            911.00     0          0          0          0
MC-42            918.00     0          0          0          0
MC-38            946.00     0          0          0          0
MC-39            946.00     0          4.00       0          0
MC-51            920.00     0          0          0          0
MC-54            913.50     0          0.30       0          0
MC-56            914.90     0          0.80       0          0
MC-60            912.76     0          1.50       0          0
MC-65            904.00     0          0          0          0
MC-68            913.70     0          0          0          0
MC-69            900.00     0          0.30       0          0
MC-77            899.20     0          2.35       0          0
MC-81            898.00     0          2.15       0          0
MC-59            930.00     0          0          0          0
MC-58            907.75     0          0          0          0
MC-66            894.00     0          0          0          0
MC-57            908.00     0          0          0          0
MC-55            908.30     0          0          0          0
MC-63            915.00     0          0          0          0
MC-64            912.30     0          0          0          0
MC-71            994.00     0          0.52       0          0
MC-79            910.00     0          0          0          0
MC-78            910.00     0          1.00       0          0
MC-80            894.84     0          0          0          0
MC-50            950.00     0          1.59       0          0
MC-47            898.30     0          0          0          0
MC-49            920.00     0          0          0          0
MC-50            918.50     0          0          0          0
MC-51            917.20     0          0          0          0
MC-50            918.50     0          0          0          0
MC-61            911.30     0          0          0          0
MC-62            911.40     0          0          0          0
MC-75            994.00     0          2.70       0          0
MC-72            892.00     0          3.90       0          0
MC-73            894.00     0          0          0          0
MC-74            893.00     0          0          0          0
MC-67            895.00     0          3.99       0          0
MC-71            993.00     0          0          0          0
MC-76            897.38     0          0.30       0          0
MC-76            897.00     0          0          0          0
MC-76            896.90     0          1.35       0          0
MC-76            896.50     0          1.85       0          0
MC-76            900.00     0          0.35       0          0
MC-77            895.90     0          1.55       0          0
MC-65            918.10     0          0          0          0
MC-66            892.20     0          0          0          0
MC-67            898.80     0          4.49       0          0
MC-67            898.80     0          0          0          0
MC-67            896.00     0          0          0          0
MC-64            909.00     0          0          0          0
MC-65            904.10     0          0          0          0
MC-65            910.20     0          0          0          0
MC-65            910.00     0          0          0          0
MC-65            910.80     0          0          0          0
MC-62            911.30     0          0          0          0
MC-62            909.80     0          0          0          0
MC-62            910.40     0          0          0          0
MC-62            909.50     0          0          0          0
MC-62            909.50     0          0          0          0
MC-62            912.80     0          0          0          0
MC-62            912.80     0          0          0          0
MC-62            908.30     0          0          0          0
MC-62            908.30     0          0          0          0
MC-62            912.90     0          0          0          0
MC-62            912.90     0          0          0          0
MC-62            911.00     0          0          0          0
MC-62            910.00     0          0.60       0          0
MC-62            910.60     0          0          0          0
MC-62            910.80     0          0          0          0
MC-61            912.66     0          0.50       0          0
MC-61            910.90     0          0          0          0
MC-61            912.76     0          0.40       0          0
MC-58            915.80     0          0          0          0
MC-58            914.30     0          1.50       0          0
MC-57            918.00     0          0          0          0
MC-57            906.90     0          1.40       0          0
MC-57            918.00     0          0          0          0
MC-57            909.30     0          0.90       0          0
MC-57            906.90     0          2.30       0          0
MC-56            910.40     0          0          0          0
MC-56            915.00     0          0.70       0          0
MC-56            908.10     0          1.40       0          0
MC-56            914.00     0          1.20       0          0
MC-56            911.30     0          1.40       0          0
MC-56            910.60     0          0          0          0
MC-56            920.00     0          0          0          0
MC-56            916.00     0          0          0          0
MC-56            916.00     0          0          0          0
MC-56            915.60     0          0.10       0          0
MC-56            914.90     0          0.10       0          0
MC-56            920.00     0          0.10       0          0
MC-56            921.10     0          0          0          0
MC-41            941.50     0          0.40       0          0
MC-41            941.80     0          0.10       0          0
MC-41            938.00     0          0.10       0          0
MC-41            921.10     0          0          0          0
MC-41            941.50     0          0.40       0          0
MC-41            921.00     0          0          0          0
MC-41            920.00     0          0          0          0
MC-37            941.50     0          0.40       0          0
MC-37            941.50     0          0.40       0          0
MC-37            921.90     0          0          0          0
MC-37            921.30     0          0          0          0
MC-37            918.60     0          0          0          0
MC-32            920.40     0          0          0          0
MC-32            927.80     0          0          0          0
MC-32            920.00     0          0.40       0          0
MC-32            924.00     0          0          0          0
MC-32            928.00     0          0          0          0
MC-29            930.00     0          0          0          0
MC-31            930.00     0          0          0          0
MC-31            930.00     0          0          0          0
MC-31            942.50     0          0          0          0
MC-31            941.80     0          0          0          0
MC-28            938.00     0          0          0          0
MC-28            930.00     0          0.10       0          0
MC-28            931.70     0          0          0          0
MC-28            931.10     0          0          0          0
MC-28            940.00     0          0          0          0
MC-28            930.00     0          0          0          0
MC-28            930.00     0          0.20       0          0
MC-28            936.00     0          0          0          0
MC-28            930.00     0          0          0          0
MC-28            946.60     0          0          0          0
MC-28            946.50     0          0          0          0
MC-28            932.80     0          0          0          0
MC-28            932.00     0          0          0          0
MC-28            931.30     0          0          0          0
MC-28            930.00     0          0          0          0
MC-28            930.00     0          0          0          0
MC-17            944.00     0          0.80       0          0
MC-17            944.80     0          0          0          0
MC-17            940.00     0          0          0          0
MC-17            956.00     0          0.50       0          0
MC-17            956.00     0          0.50       0          0
MC-17            944.00     0          0.80       0          0
MC-17            956.00     0          0.50       0          0
MC-17            943.00     0          0          0          0
MC-17            943.50     0          0          0          0
MC-17            949.60     0          0          0          0
MC-17            956.00     0          0.50       0          0
MC-17            940.60     0          0          0          0
MC-17            951.00     0          0          0          0
MC-77            899.00     0          1.55       0          0
MC-77            900.00     0          1.55       0          0
MC-77            895.50     0          2.15       0          0
MC-77            900.00     0          1.75       0          0
MC-77            900.00     0          2.45       0          0
MC-77            900.70     0          1.75       0          0
MC-81            898.00     0          0          0          0
MC-80            894.78     0          0          0          0
MC-80            894.04     0          0          0          0
MC-78            920.00     0          0          0          0
MC-78            920.00     0          0          0          0
MC-81            900.00     0          0          0          0
MC-85            994.00     0          0          0          0
MC-16            940.00     0          0          0          0
MC-9             0          0          0          0          0
MC-15            0          0          0          0          0
MC-17            0          0          0          0          0
MC-100           889.00     0          6.97       0          0
MC-101           890.00     0          0          0          0
MC-102           890.00     0          0          0          0
MC-103           875.30     0          0          0          0
MC-104           876.30     0          1.00       0          0
MC-105           860.30     0          7.00       0          0
MC-109           865.00     0          6.85       0          0
MC-121           860.00     0          7.85       0          0
MC-126           860.00     0          7.85       0          0
MC-127           860.00     0          0          0          0
MC-130           860.00     0          9.80       0          0
MC-131           850.34     0          0          0          0
MC-110           886.00     0          0          0          0
MC-114           878.80     0          0          0          0
MC-122           960.00     0          6.85       0          0
MC-118           865.00     0          0          0          0
MC-117           865.30     0          0          0          0
MC-123           876.00     0          0.15       0          0
MC-120           877.00     0          0          0          0
MC-119           863.00     0          0          0          0
MC-108           865.00     0          6.85       0          0
MC-107           865.00     0          0          0          0
MC-128           894.00     0          0          0          0
MC-124           869.50     0          0          0          0
MC-125           860.30     0          7.55       0          0
MC-115           885.00     0          3.00       0          0
MC-116           870.00     0          0          0          0
MC-112           890.00     0          0          0          0
MC-82            907.10     0          0          0          0
MC-86            880.00     0          0.50       0          0
MC-88            874.00     0          0          0          0
MC-92            863.50     0          0          0          0
MC-93            866.00     0          0          0          0
MC-93            864.00     0          0          0          0
MC-94            860.00     0          0          0          0
MC-96            860.00     0          0.20       0          0
MC-98            854.90     0          0          0          0
MC-99            846.34     0          0          0          0
MC-132           850.00     0          0.29       0          0
MC-133           848.00     0          0.14       0          0
MC-136           846.00     0          0          0          0
MC-137           841.50     0          0          0          0
MC-141           836.00     0          0          0          0
MC-141           836.30     0          0          0          0
MC-173           830.00     0          3.74       0          0
MC-174           830.00     0          1.12       0          0
MC-175           831.62     0          0          0          0
MC-178           821.60     0          0          0          0
MC-180           830.00     0          0.67       0          0
MC-184           750.00     0          0          0          0
MC-89            878.00     0          0          0          0
MC-90            864.00     0          4.40       0          0
MC-91            864.00     0          0          0          0
MC-129           860.00     0          0          0          0
MC-83            886.00     0          0          0          0
MC-95            860.30     0          0          0          0
MC-97            845.30     0          0          0          0
MC-134           878.30     0          0          0          0
MC-139           847.00     0          0          0          0
MC-140           830.00     0          0          0          0
MC-147           827.00     0          0          0          0
MC-179           820.90     0          0.60       0          0
MC-183           762.16     0          0          0          0
MC-176           827.30     0          0          0          0
MC-111           887.80     0          0          0          0
MC-84            886.00     0          0          0          0
MC-85            880.50     0          0          0          0
MC-87            874.80     0          1.50       0          0
MC-100           882.30     0          0          0          0
MC-100           894.80     0          0          0          0
MC-100           894.80     0          0          0          0
MC-100           890.20     0          0          0          0
MC-100           892.80     0          0          0          0
MC-81            889.40     0          0          0          0
MC-81            884.30     0          0          0          0
MC-81            891.00     0          0          0          0
MC-101           889.30     0          0          0          0
MC-102           878.60     0          0          0          0
MC-102           883.80     0          0          0          0
MC-101           880.41     0          0          0          0
MC-102           875.80     0          0          0          0
MC-102           876.30     0          0          0          0
MC-102           881.88     0          0          0          0
MC-104           878.10     0          5.75       0          0
MC-104           876.30     0          0          0          0
MC-104           876.30     0          0          0          0
MC-104           870.80     0          0          0          0
MC-104           865.00     0          0          0          0
MC-104           870.10     0          0          0          0
MC-104           866.20     0          0          0          0
MC-104           866.30     0          0          0          0
MC-104           866.30     0          0          0          0
MC-104           866.10     0          0          0          0
MC-104           866.60     0          0          0          0
MC-104           866.10     0          0          0          0
MC-104           865.00     0          0          0          0
MC-105           860.30     0          2.50       0          0
MC-105           860.30     0          2.50       0          0
MC-106           860.50     0          0          0          0
MC-106           861.80     0          0          0          0
MC-106           862.50     0          0          0          0
MC-110           882.80     0          0          0          0
MC-110           890.00     0          0          0          0
MC-110           878.50     0          0          0          0
MC-115           886.30     0          0          0          0
MC-115           883.00     0          0          0          0
MC-115           881.80     0          0          0          0
MC-119           863.00     0          0          0          0
MC-89            878.00     0          0          0          0
MC-89            878.00     0          0          0          0
MC-84            892.85     0          0          0          0
MC-84            884.91     0          0          0          0
MC-84            884.85     0          0          0          0
MC-85            874.34     0          0          0          0
MC-85            870.00     0          0          0          0
MC-82            880.00     0          0.50       0          0
MC-82            880.00     0          2.10       0          0
MC-82            880.00     0          1.40       0          0
MC-82            891.00     0          0          0          0
MC-125           849.80     0          0          0          0
MC-86            880.60     0          0.90       0          0
MC-125eof        860.30     0          0          0          0
MC-126           860.95     0          0          0          0
MC-126           860.95     0          0          0          0
MC-126           860.49     0          0          0          0
MC-126           860.32     0          0          0          0
MC-126           862.94     0          0          0          0
MC-130           852.57     0          0          0          0
MC-86            880.00     0          0          0          0
MC-86            876.00     0          0          0          0
MC-86            874.00     0          0.90       0          0
MC-86            874.00     0          1.80       0          0
MC-87            874.00     0          2.30       0          0
MC-87            874.00     0          2.80       0          0
MC-87            876.80     0          0          0          0
MC-87            874.00     0          0          0          0
MC-88            875.50     0          0          0          0
MC-88            870.00     0          0          0          0
MC-88            870.00     0          0          0          0
MC-88            872.00     0          0.20       0          0
MC-92            872.00     0          0.20       0          0
MC-92            880.00     0          1.30       0          0
MC-92            868.00     0          0.60       0          0
MC-92            870.00     0          0.30       0          0
MC-92            870.00     0          1.00       0          0
MC-92            859.80     0          0          0          0
MC-92            862.00     0          0          0          0
MC-93            880.00     0          1.70       0          0
MC-93            870.90     0          0          0          0
MC-93            866.00     0          0          0          0
MC-93            866.00     0          0          0          0
MC-93            864.00     0          0          0          0
MC-93            864.00     0          0          0          0
MC-93            864.00     0          0          0          0
MC-93            864.00     0          0          0          0
MC-94            864.00     0          0          0          0
MC-94            860.00     0          0.50       0          0
MC-94            860.00     0          0          0          0
MC-96            860.50     0          0          0          0
MC-96            860.00     0          0.50       0          0
MC-96            864.00     0          0.10       0          0
MC-96            891.50     0          0          0          0
MC-96            891.50     0          0          0          0
MC-96            868.50     0          1.60       0          0
MC-98            868.50     0          1.60       0          0
MC-98            868.00     0          0.60       0          0
MC-97            867.00     0          0          0          0
MC-98            854.90     0          1.00       0          0
MC-98            853.90     0          1.00       0          0
MC-98            851.50     0          0          0          0
MC-98            851.20     0          0.15       0          0
MC-98            855.10     0          0.15       0          0
MC-98            855.10     0          0.15       0          0
MC-98            852.00     0          0.20       0          0
MC-98            852.30     0          0          0          0
MC-98            850.55     0          0.14       0          0
MC-99            850.00     0          0          0          0
MC-99            852.00     0          0.90       0          0
MC-99            849.00     0          0          0          0
MC-99            850.00     0          0.01       0          0
MC-98            850.00     0          0          0          0
MC-99            852.00     0          0          0          0
MC-99            849.00     0          0          0          0
MC-131           850.52     0          0          0          0
MC-131           851.00     0          0          0          0
MC-132           850.00     0          0.41       0          0
MC-132           848.40     0          0.71       0          0
MC-132           850.44     0          0          0          0
MC-132           850.03     0          0          0          0
MC-132           850.00     0          0.19       0          0
MC-132           850.29     0          0          0          0
MC-132           850.19     0          0          0          0
MC-133           870.24     0          0          0          0
MC-133           870.00     0          0          0          0
MC-133           888.00     0          0          0          0
MC-136           877.90     0          0          0          0
MC-136           877.30     0          0          0          0
MC-136           848.00     0          0.60       0          0
MC-136           848.00     0          0.80       0          0
MC-136           849.00     0          0          0          0
MC-136           847.40     0          0          0          0
MC-136           846.00     0          0          0          0
MC-133           886.00     0          0.90       0          0
MC-135           861.30     0          0          0          0
MC-137           848.00     0          0          0          0
MC-136FN10       846.00     0          0          0          0
MC-136FN11       878.00     0          0.30       0          0
MC-136           878.30     0          0          0          0
MC-136FN12       880.50     0          0          0          0
MC-136FN13       862.40     0          0.20       0          0
MC-136FN14       843.00     0          0          0          0
MC-136FN15       842.50     0          0          0          0
MC-136FN16       842.50     0          0          0          0
MC-136FN17       842.30     0          0.20       0          0
MC-136FN18       842.20     0          0          0          0
MC-137           847.40     0          0          0          0
MC-137           847.00     0          0          0          0
MC-137           842.20     0          0          0          0
MC-138           841.50     0          0          0          0
MC-141           836.00     0          0.60       0          0
MC-141           842.20     0          0          0          0
MC-138           840.00     0          0          0          0
MC-138           842.20     0          0          0          0
MC-138           842.20     0          0          0          0
MC-148           834.30     0          0          0          0
MC-149           831.50     0          0          0          0
MC-151           830.00     0          0.30       0          0
MC-154           832.00     0          1.67       0          0
MC-153           818.30     0          0          0          0
MC-169           822.00     0          0          0          0
MC-142           841.00     0          0          0          0
MC-144           842.60     0          3.75       0          0
MC-145           834.30     0          0          0          0
MC-143           837.30     0          0          0          0
MC-158           836.33     0          0          0          0
MC-160           840.00     0          1.49       0          0
MC-161           826.00     0          0          0          0
MC-162           821.80     0          0          0          0
MC-167           825.00     0          6.00       0          0
MC-155           831.90     0          0          0          0
MC-155           830.55     0          0          0          0
MC-155           836.25     0          0          0          0
MC-156           832.30     0          4.00       0          0
MC-156           832.30     0          0          0          0
MC-157           845.30     0          0          0          0
MC-157           839.30     0          0          0          0
MC-157           839.30     0          0          0          0
MC-159           829.13     0          1.57       0          0
MC-166           820.00     0          0          0          0
MC-163           820.00     0          0          0          0
MC-164           820.00     0          0          0          0
MC-165           820.00     0          0          0          0
MC-170           820.00     0          0          0          0
MC-172           824.55     0          3.99       0          0
MC-168           825.20     0          0.90       0          0
MC-146           828.90     0          0          0          0
MC-157           849.30     0          0          0          0
MC-156           836.33     0          0          0          0
MC-155           836.60     0          0          0          0
MC-155           840.00     0          0          0          0
MC-155           840.00     0          0          0          0
MC-162           817.40     0          0          0          0
MC-163           815.10     0          4.00       0          0
MC-166           815.10     0          0          0          0
MC-155           833.57     0          0          0          0
MC-159           850.13     0          1.70       0          0