;; SWMM5 .inp converted from XPSWMM .xp file
;; Generated by XPSWMM Card Reader
;; Source format: XP_CARD | Original title: West Shunga Basin, Topeka, Kansas

[TITLE]
;;Project Title/Notes
West Shunga Basin, Topeka, Kansas

[OPTIONS]
FLOW_UNITS           CFS
INFILTRATION         HORTON
FLOW_ROUTING         DYNWAVE
LINK_OFFSETS         DEPTH
MIN_SLOPE            0.0
ALLOW_PONDING        NO
SKIP_STEADY_STATE    NO
ROUTING_STEP         00:00:15
VARIABLE_STEP        0.75
INERTIAL_DAMPING     PARTIAL
NORMAL_FLOW_LIMITED  BOTH
MAX_TRIALS           50
HEAD_TOLERANCE       0.

[JUNCTIONS]
;;Name           Elev       MaxDepth   InitDepth  SurDepth   Aponded
;;-------------- ---------- ---------- ---------- ---------- ----------
34410070         1003.36    0          0          0          0
34410072         997.92     0          0          0          0
34410073         991.17     0          0          0          0
34410074         989.86     0          0          0          0
34410075         988.69     0          0          0          0
34410076         987.15     0          0          0          0
34410084         979.22     0          0          0          0
34410085         979.14     0          0          0          0
34410090         973.37     0          0          0          0
34410095         973.16     0          0          0          0
34410098         968.06     0          0          0          0
34410101         967.67     0          0          0          0
34410104         963.69     0          0          0          0
34410106         963.68     0          0          0          0
34520059         963.16     0          0          0          0
34520057         966.22     0          0          0          0
34520054         973.08     0          0          0          0
34520052         977.90     0          0          0          0
34520048         981.20     0          0          0          0
34520046         988.11     0          0          0          0
34410107         960.52     0          0          0          0
34410109         960.42     0          0          0          0
34410114         955.40     0          0          0          0
34440056         954.47     0          0          0          0
34440067         951.14     0          0          0          0
34440066         949.40     0          0          0          0
34440065         948.44     0          0          0          0
34440064         947.78     0          0          0          0
34440063         946.96     0          0          0          0
34530257         953.89     0          0          0          0
34530256         950.77     0          0          0          0
34530255         946.16     0          0          0          0
34530254         945.90     0          0          0          0
34520068         959.50     0          0          0          0
34520071         955.51     0          0          0          0
34530114         952.43     0          0          0          0
34530113         952.31     0          0          0          0
34530110         946.53     0          0          0          0
34530109         938.77     0          0          0          0
34530108         939.54     0          0          0          0
34530107         939.15     0          0          0          0
34530125         929.81     0          0          0          0
34530250         941.37     0          0          0          0
34530251         939.78     0          0          0          0
34530252         939.80     0          0          0          0
34530253         942.44     0          0          0          0
34530032         942.94     0          0          0          0
34530202         951.95     0          0          0          0
34530126         926.50     0          0          0          0
34530010         940.62     0          0          0          0
34530005         944.53     0          0          0          0
34530002         946.89     0          0          0          0
34530082         937.21     0          0          0          0
34530081         936.87     0          0          0          0
34530079         935.89     0          0          0          0
34530078         936.04     0          0          0          0
34530077         935.85     0          0          0          0
34530037         931.47     0          0          0          0
34530030         927.51     0          0          0          0
34530200         952.95     0          0          0          0
34530201         950.38     0          0          0          0
34520073         951.11     0          0          0          0
34520006         951.05     0          0          0          0
34520004         952.42     0          0          0          0
34520030         958.52     0          0          0          0
34520029         956.75     0          0          0          0
34520026         956.68     0          0          0          0
34520101         961.09     0          0          0          0
34520003         956.24     0          0          0          0
34520002         954.47     0          0          0          0
34520102         971.21     0          0          0          0
34510112         960.28     0          0          0          0
34510052         960.57     0          0          0          0
34510114         960.78     0          0          0          0
34510115         959.82     0          0          0          0
34510061         952.72     0          0          0          0
34510064         956.02     0          0          0          0
34510071         945.00     0          0          0          0
34510106         927.90     0          0          0          0
34510500         927.06     0          0          0          0
34510501         932.23     0          0          0          0
34510105         929.79     0          0          0          0
35540001         968.91     0          0          0          0
35540016         965.74     0          0          0          0
35540015         966.69     0          0          0          0
35540023         973.89     0          0          0          0
35540025         974.04     0          0          0          0
35540031         977.76     0          0          0          0
35540034         978.36     0          0          0          0
35540041         978.71     0          0          0          0
35540035         981.69     0          0          0          0
35540039         982.35     0          0          0          0
35540046         981.49     0          0          0          0
35530001         991.22     0          0          0          0
35530002         992.58     0          0          0          0
35530003         995.72     0          0          0          0
35530004         996.74     0          0          0          0
35530005         999.13     0          0          0          0
35530006         1004.28    0          0          0          0
35530007         1009.01    0          0          0          0
35530008         1015.04    0          0          0          0
35530009         1014.30    0          0          0          0
35530010         1016.44    0          0          0          0
35530012         1021.66    0          0          0          0
35530014         1021.07    0          0          0          0
35530011         1021.01    0          0          0          0
35530013         1021.14    0          0          0          0
34430033         987.61     0          0          0          0
34940049         988.03     0          0          0          0
34940102         988.92     0          0          0          0
34940048         988.27     0          0          0          0
34940047         991.03     0          0          0          0
34940103         992.17     0          0          0          0
34940046         994.26     0          0          0          0
34940104         995.73     0          0          0          0
34940105         998.46     0          0          0          0
34430038         987.43     0          0          0          0
34430040         980.38     0          0          0          0
34430088         980.56     0          0          0          0
34430089         977.85     0          0          0          0
34430043         973.17     0          0          0          0
34430046         973.17     0          0          0          0
34430059         967.46     0          0          0          0
34430061         965.64     0          0          0          0
35520010         964.81     0          0          0          0
34430058         969.44     0          0          0          0
34430053         969.93     0          0          0          0
34430022         983.83     0          0          0          0
34430023         981.80     0          0          0          0
34430016         983.00     0          0          0          0
34430015         984.70     0          0          0          0
34430017         989.90     0          0          0          0
34430013         986.89     0          0          0          0
34430009         989.72     0          0          0          0
34430008         991.30     0          0          0          0
34430007         989.70     0          0          0          0
34940028         995.48     0          0          0          0
34940033         991.94     0          0          0          0
34940034         988.16     0          0          0          0
34940036         982.88     0          0          0          0
34940037         982.91     0          0          0          0
34940075         983.27     0          0          0          0
34940038         981.41     0          0          0          0
34940040         980.38     0          0          0          0
34940041         980.41     0          0          0          0
34940085         980.85     0          0          0          0
34940084         976.16     0          0          0          0
34940100         972.15     0          0          0          0
34940101         970.94     0          0          0          0
34940064         988.04     0          0          0          0
34940065         991.61     0          0          0          0
34830029         1041.22    0          0          0          0
34830025         1036.54    0          0          0          0
34830024         1021.24    0          0          0          0
34830023         1022.60    0          0          0          0
34830021         1028.62    0          0          0          0
34830020         1030.47    0          0          0          0
34830017         1032.58    0          0          0          0
34830015         1037.70    0          0          0          0
34830014         1037.65    0          0          0          0
34830013         1039.27    0          0          0          0
34830016         1038.38    0          0          0          0
34830011         1039.40    0          0          0          0
34830010         1039.73    0          0          0          0
34830009         1044.43    0          0          0          0
34830008         1048.67    0          0          0          0
34830007         1048.60    0          0          0          0
34830034         1045.82    0          0          0          0
34830033         1043.48    0          0          0          0
34830032         1041.80    0          0          0          0
34830031         1039.63    0          0          0          0
34830030         1037.71    0          0          0          0
34830026         1034.81    0          0          0          0
0631             962.22     0          0          0          0
0718             980.00     0          0          0          0
0819             988.19     0          0          0          0
0813             985.67     0          0          0          0
0804             980.16     0          0          0          0
0798             977.59     0          0          0          0
0679             973.41     0          0          0          0
0315             967.43     0          0          0          0
0327             963.34     0          0          0          0
0305             930.25     0          0          0          0
0289             972.44     0          0          0          0
0298             951.44     0          0          0          0
35540013         966.00     0          0          0          0
0761             970.66     0          0          0          0
34530034         939.70     0          0          0          0
34530111         952.06     0          0          0          0
34530115         955.71     0          0          0          0
34530031         942.68     0          0          0          0
34530033         942.33     0          0          0          0

[CONDUITS]
;;Name           From             To               Length     Roughness  InOffset   OutOffset  InitFlow   MaxFlow
;;-------------- ---------------- ---------------- ---------- ---------- ---------- ---------- ---------- ----------
34411070         34410070         34410072         316.00     0.0270     992.26     987.02     0          0
34411072         34410072         34410073         253.00     0.0270     986.92     983.42     0          0
34411073         34410073         34410075         348.00     0.0270     983.41     977.89     0          0
34411074         34410074         34410076         114.00     0.0270     980.86     978.15     0          0
34411075         34410075         34520046         62.00      0.0270     977.79     976.96     0          0
34411076         34410076         34410084         263.00     0.0270     978.05     970.57     0          0
34411084         34410084         34410085         38.00      0.0270     969.97     969.14     0          0
34411085         34410085         34410090         284.00     0.0270     968.24     964.97     0          0
34411090         34410090         34410095         33.00      0.0270     964.70     964.21     0          0
34411095         34410095         34410098         266.00     0.0270     963.96     958.41     0          0
34411098         34410098         34410101         36.00      0.0270     958.26     958.26     0          0
34411101         34410101         34410104         265.00     0.0270     958.32     954.26     0          0
34411104         34410104         34410106         36.00      0.0270     954.14     953.58     0          0
34411106         34410106         34410107         278.00     0.0270     953.38     951.17     0          0
34521059         34520059         34520068         307.00     0.0270     954.60     950.63     0          0
34521057         34520057         34520059         229.00     0.0270     957.46     954.61     0          0
34521054         34520054         34520057         365.00     0.0270     964.40     957.86     0          0
34521052         34520052         34520054         266.00     0.0270     969.04     964.41     0          0
34521048         34520048         34520052         138.00     0.0270     971.26     969.02     0          0
34521046         34520046         34520048         283.00     0.0270     976.96     971.40     0          0
34411107         34410107         34410109         32.00      0.0270     950.77     950.77     0          0
34411109         34410109         34410114         249.00     0.0270     950.67     946.15     0          0
34411114         34410114         34530257         654.00     0.0270     946.10     943.49     0          0
34441056         34440056         34440067         372.00     0.0270     948.85     946.99     0          0
34441067         34440067         34440066         106.00     0.0270     944.74     943.60     0          0
34441066         34440066         34440065         63.00      0.0270     943.60     943.39     0          0
34441065         34440065         34440064         31.00      0.0270     943.01     941.93     0          0
34441064         34440064         34440063         51.00      0.0270     941.83     940.66     0          0
34531257         34530257         34530256         196.00     0.0270     943.44     942.57     0          0
34531256         34530256         34530255         132.00     0.0270     942.55     936.26     0          0
34531255         34530255         34530254         32.00      0.0270     936.36     935.60     0          0
34531254         34530254         34530253         154.00     0.0270     935.50     933.77     0          0
34521068         34520068         34520071         254.00     0.0270     950.30     946.53     0          0
34531114         34530114         34530113         39.00      0.0270     948.90     948.20     0          0
34531113         34530113         34530200         144.00     0.0270     941.41     940.05     0          0
34531110         34530110         34530109         272.00     0.0150     936.43     932.07     0          0
34531109         34530109         34530108         210.00     0.0150     931.97     925.69     0          0
34531108         34530108         34530107         222.00     0.0270     925.84     922.95     0          0
34531107         34530107         34530125         79.00      0.0270     922.80     921.78     0          0
34531250         34530250         34530108         138.00     0.0270     930.52     928.69     0          0
34531251         34530251         34530250         75.00      0.0270     930.92     930.82     0          0
34531252         34530252         34530251         35.00      0.0270     931.25     930.95     0          0
34531253         34530253         34530252         142.00     0.0270     933.79     931.30     0          0
34531010         34530010         34530126         58.00      0.0150     923.73     921.70     0          0
34531005         34530005         34530010         542.00     0.0150     937.13     926.27     0          0
34531002         34530002         34530005         238.00     0.0150     941.53     937.43     0          0
34531082         34530082         34530081         61.00      0.0270     930.42     930.14     0          0
34531081         34530081         34530079         132.00     0.0270     930.07     929.32     0          0
34531079         34530079         34530078         44.00      0.0270     929.22     928.84     0          0
34531078         34530078         34530077         30.00      0.0270     928.74     927.95     0          0
34531077         34530077         34530037         361.00     0.0270     927.75     923.77     0          0
34531037         34530037         34530030         357.00     0.0270     922.47     919.43     0          0
34531200         34530200         34530201         87.00      0.0270     941.10     940.23     0          0
34531201         34530201         34530202         216.00     0.0270     939.83     936.95     0          0
34521006         34520006         34520073         11.00      0.0270     946.80     946.40     0          0
34521004         34520004         34520073         54.00      0.0270     946.34     946.29     0          0
34521030         34520030         34520003         126.00     0.0270     948.97     948.29     0          0
34521026         34520026         34520029         35.00      0.0150     950.13     949.65     0          0
34521101         34520101         34520026         424.00     0.0150     953.42     950.41     0          0
34521102         34520102         34520101         546.00     0.0150     962.21     953.42     0          0
34511112         34510112         34510052         86.00      0.0150     953.31     952.26     0          0
34511052         34510052         34510061         546.00     0.0270     951.58     945.87     0          0
34511114         34510114         34510052         162.00     0.0150     951.90     951.72     0          0
34511115         34510115         34510114         109.00     0.0150     952.52     952.25     0          0
34511061         34510061         34510064         139.00     0.0270     945.72     944.66     0          0
34511064         34510064         34510071         876.00     0.0270     944.45     936.31     0          0
34511071         ?                ?                1311.00    0.0270     936.31     923.94     0          0
34511105         34510105         34510106         156.00     0.0270     923.37     921.87     0          0
35541023         35540023         35540015         299.00     0          967.51     960.31     0          0
35541025         35540025         35540023         85.00      0.0150     968.24     967.51     0          0
35541031         35540031         35540025         248.00     0          972.26     968.24     0          0
35541034         35540034         35540031         73.00      0.0150     972.46     972.26     0          0
35541041         35540041         35540035         91.00      0.0150     974.21     973.69     0          0
35541035         35540035         35540034         140.00     0          973.69     972.46     0          0
35541039         35540039         35540035         89.00      0          974.35     973.69     0          0
35541046         35540046         35540039         81.00      0.0150     974.79     974.35     0          0
35531001         35530001         35540046         243.00     0          984.52     974.79     0          0
35531002         35530002         35530001         76.00      0.0150     984.74     984.52     0          0
35531003         35530003         35530002         165.00     0          987.88     984.74     0          0
35531006         35530006         35530005         363.00     0.0150     996.88     990.88     0          0
35531007         35530007         35530006         207.00     0.0150     1001.77    997.01     0          0
35531008         35530008         35530007         250.00     0.0150     1005.75    1001.99    0          0
35531009         35530009         35530008         76.00      0.0150     1006.53    1005.77    0          0
35531010         35530010         35530009         184.00     0.0150     1008.28    1006.56    0          0
35531012         35530012         35530011         77.00      0.0150     1013.71    1012.84    0          0
35531014         35530014         35530012         93.00      0.0150     1015.19    1013.81    0          0
35531011         35530011         35530010         130.00     0.0150     1009.52    1008.39    0          0
35531013         35530013         35530012         88.00      0.0150     1015.28    1013.96    0          0
34431033         34430033         34430088         295.00     0.0150     979.01     975.69     0          0
34941049         34940049         34430033         133.00     0.0150     983.03     981.91     0          0
34941102         34940102         34940049         5.00       0.0150     983.12     983.03     0          0
34941048         34940048         34940049         160.00     0.0150     983.72     983.33     0          0
34941047         34940047         34940048         98.00      0.0150     985.63     983.72     0          0
34941103         34940103         34940047         67.00      0.0150     986.77     985.83     0          0
34941046         34940046         34940103         113.00     0.0150     988.21     986.77     0          0
34941104         34940104         34940046         53.00      0.0150     988.88     988.56     0          0
34431038         34430038         34430040         252.00     0.0150     982.48     975.43     0          0
34431040         34430040         34430046         249.00     0.0150     975.43     969.12     0          0
34431061         34430061         35520010         103.00     0.0150     958.00     957.31     0          0
34431058         34430058         34430061         144.00     0.0150     961.80     958.00     0          0
34431053         34430053         34430058         75.00      0.0270     962.93     961.80     0          0
34431017         34430017         34430016         161.00     0.0270     984.60     979.67     0          0
34431013         34430013         34430015         170.00     0.0150     980.79     979.34     0          0
34431009         34430009         34430013         147.00     0.0150     983.47     980.79     0          0
34431008         34430008         34430009         152.00     0.0150     985.40     983.57     0          0
34431007         34430007         34430008         39.00      0.0150     986.70     985.40     0          0
34941028         34940028         34940033         188.00     0.0270     987.68     985.94     0          0
34941033         34940033         34940034         202.00     0.0270     985.94     982.81     0          0
34941034         34940034         34940036         248.00     0.0270     982.76     977.43     0          0
34941036         34940036         34940038         273.00     0.0270     976.13     974.81     0          0
34941037         34940037         34940036         38.00      0.0270     977.75     977.23     0          0
34941075         34940075         34940037         24.00      0.0270     978.27     977.81     0          0
34941038         34940038         34940040         211.00     0.0270     974.66     973.28     0          0
34941040         34940040         34940084         298.00     0.0270     972.38     969.42     0          0
34941041         34940041         34940040         38.00      0.0270     974.56     974.08     0          0
34941085         34940085         34940041         25.00      0.0270     975.20     974.96     0          0
34941100         34940100         34940101         61.00      0.0150     963.25     962.04     0          0
34831029         34830029         34830025         239.00     0.0270     1035.22    1029.04    0          0
34831025         34830025         34830024         372.00     0.0150     1021.34    1017.24    0          0
34831021         34830021         34830023         131.00     0.0270     1019.12    1018.60    0          0
34831020         34830020         34830021         295.00     0.0150     1022.47    1021.17    0          0
34831017         34830017         34830020         176.00     0.0270     1024.73    1023.27    0          0
34831015         34830015         34830017         268.00     0.0270     1026.70    1024.78    0          0
34831014         34830014         34830015         30.00      0.0270     1032.45    1031.85    0          0
34831013         34830013         34830014         69.00      0.0270     1033.22    1032.60    0          0
34831016         34830016         34830015         45.00      0.0270     1031.08    1028.00    0          0
34831011         34830011         34830016         84.00      0.0270     1033.10    1031.48    0          0
34831010         34830010         34830011         27.00      0.0270     1033.98    1033.20    0          0
34831009         34830009         34830010         272.00     0.0270     1039.51    1036.23    0          0
34831008         34830008         34830009         189.00     0.0270     1042.37    1039.51    0          0
34831007         34830007         34830008         30.00      0.0270     1042.57    1042.47    0          0
34831034         34830034         34830033         165.00     0.0270     1038.02    1036.78    0          0
34831033         34830033         34830032         91.00      0.0270     1036.03    1035.05    0          0
34831032         34830032         34830031         174.00     0.0270     1034.95    1033.13    0          0
34831031         34830031         34830030         160.00     0.0270     1031.81    1030.21    0          0
34831030         34830030         34830026         382.00     0.0150     1030.06    1028.21    0          0
34831026         34830026         34830025         187.00     0.0150     1027.61    1026.19    0          0
34521029         34520029         34520002         255.00     0.0270     949.22     947.73     0          0
34941105         34940105         34940104         192.00     0.0150     990.76     988.90     0          0
34431089         34430089         34430043         295.00     0.0150     974.15     972.17     0          0
34431059         34430059         34430061         346.00     0.0150     962.79     958.00     0          0
35521010         35520010         0631             139.00     0          957.31     954.72     0          0
34431022         34430022         0718             280.00     0.0150     976.41     970.60     0          0
34431023         34430023         34430022         55.00      0.0150     976.44     976.41     0          0
34431016         34430016         34430015         20.00      0.0270     979.67     979.34     0          0
34431015         34430015         34430023         265.00     0.0150     979.34     976.44     0          0
34941064         34940064         34940065         94.00      0.0150     982.64     981.81     0          0
34941065         34940065         0819             377.00     0          981.81     978.16     0          0
34941819         0819             0813             264.00     0          978.16     975.64     0          0
34941813         0813             0804             399.00     0          975.64     971.90     0          0
34941804         0804             0798             360.00     0          971.90     970.54     0          0
34941084         34940084         34940100         404.00     0          969.42     963.25     0          0
34431718         0718             0679             239.00     0.0150     970.60     967.14     0          0
34431679         0679             34430053         387.00     0.0150     967.14     962.93     0          0
35541001         35540001         0315             28.00      0          948.35     946.87     0          0
35541315         0315             0327             100.00     0          946.87     945.89     0          0