;; SWMM5 .inp converted from XPSWMM .xp file
;; Generated by XPSWMM Card Reader
;; Source format: XP_CARD | Original title: DERM SWMMP  FLW35154.A0.F2   7/2/94

[TITLE]
;;Project Title/Notes
DERM SWMMP  FLW35154.A0.F2   7/2/94

[OPTIONS]
FLOW_UNITS           CFS
INFILTRATION         HORTON
FLOW_ROUTING         DYNWAVE
LINK_OFFSETS         DEPTH
MIN_SLOPE            0.0
ALLOW_PONDING        NO
SKIP_STEADY_STATE    NO
ROUTING_STEP         00:00:30
VARIABLE_STEP        0.75
INERTIAL_DAMPING     PARTIAL
NORMAL_FLOW_LIMITED  BOTH
MAX_TRIALS           30
HEAD_TOLERANCE       0.0033

[JUNCTIONS]
;;Name           Elev       MaxDepth   InitDepth  SurDepth   Aponded
;;-------------- ---------- ---------- ---------- ---------- ----------
S-29             6.60       0          15.40      0          0
C9E-01           12.19      0          15.80      0          0
C9E-02c          0          0          0          0          0
N-C9-050         12.50      0          21.00      0          0
N-C9-060         8.60       0          14.70      0          0
C9E-05           8.00       0          6.10       0          0
C9E-03           8.60       0          14.50      0          0
N-C9-070         24.50      0          16.30      0          0
N-CCA-010        8.50       0          7.70       0          0
N-E23-EA         7.10       0          9.40       0          0
N-W32-NO         7.60       0          18.70      0          0
C9W-04o          7.95       0          10.00      0          0
C9W-03o          10.76      0          15.40      0          0
SBD-05           8.00       0          8.50       0          0
SBD-04           7.50       0          7.00       0          0
SBD-12           10.00      0          14.70      0          0
SBD-13           6.70       0          7.80       0          0
SBD-07           6.70       0          7.80       0          0
MIR-01           50.00      0          5.00       0          0
SBD-01           6.50       0          12.00      0          0
SBD-02           6.70       0          9.80       0          0
SBD-03           7.30       0          7.20       0          0
N-W24-EA         7.92       0          15.00      0          0
N-W22-SO         10.00      0          10.00      0          0
C9E-07c          0          0          0          0          0
C9E-04c          0          0          0          0          0
C9E-05c          0          0          0          0          0
C9E-03c          0          0          0          0          0
C9E-06c          0          0          0          0          0
C9E-01c          0          0          0          0          0
N-W38-WE         7.50       0          12.00      0          0
N-PPC-020        8.80       0          14.80      0          0
N-W32-SO         8.80       0          14.80      0          0
N-W39-WE         8.80       0          14.80      0          0
N-W31-WE         8.00       0          12.50      0          0
N-W06-WE         9.00       0          15.00      0          0
N-W06-EA         9.00       0          10.40      0          0
N-W04-SO         8.08       0          11.00      0          0
N-W04-NO         7.80       0          11.00      0          0
N-W03-NO         7.80       0          11.00      0          0
N-W03-SO         7.80       0          11.00      0          0
N-W02-NO         7.80       0          11.00      0          0
N-W02-SO         7.80       0          11.00      0          0
N-W44-SO         7.90       0          11.00      0          0
N-W44-NO         7.90       0          11.00      0          0
N-W43-SO         7.80       0          11.00      0          0
N-W43-NO         7.80       0          11.00      0          0
N-W01-SO         7.80       0          11.00      0          0
N-W01-NO         7.80       0          11.00      0          0
N-W42-NO         7.80       0          11.00      0          0
N-W42-SO         7.25       0          11.00      0          0
N-E23-WE         7.25       0          11.00      0          0
N-W41-SO         7.50       0          12.00      0          0
N-W41-NO         7.00       0          10.50      0          0
N-W40-EA         7.50       0          12.00      0          0
N-W36-WE         7.50       0          12.00      0          0
N-W36-EA         7.50       0          12.00      0          0
N-W37-WE         7.50       0          12.00      0          0
N-W37-EA         7.50       0          12.00      0          0
N-W05-NO         11.50      0          11.90      0          0
N-W47-WE         7.92       0          15.00      0          0
N-C9-090         8.00       0          14.70      0          0
N-W08-SO         8.00       0          13.00      0          0
N-W08-NO         7.50       0          7.00       0          0
C9W-03           8.00       0          15.40      0          0
N-W21-WE         7.00       0          10.00      0          0
C9W-04           10.00      0          10.00      0          0
N-W24-WE         7.92       0          15.00      0          0
N-W25-SO         7.00       0          11.50      0          0
N-W25-NO         7.00       0          12.00      0          0
N-W09-SO         7.00       0          12.00      0          0
N-W09-NO         8.00       0          13.00      0          0
N-W23-SO         10.00      0          10.00      0          0
N-W28-WE         11.00      0          12.50      0          0
N-W28-EA         11.00      0          12.50      0          0
N-W31-EA         7.70       0          12.00      0          0
N-W39-EA         7.50       0          12.00      0          0
N-C9-080         24.50      0          14.70      0          0
388              0          0          0          0          0
389              0          0          0          0          0
394              0          0          0          0          0
396              0          0          0          0          0
398              0          0          0          0          0
399              0          0          0          0          0
N-W22-NO         7.92       0          15.00      0          0
C9E-04           13.40      0          16.30      0          0
N-E14-NO         6.70       0          9.80       0          0
N-E14-SO         7.00       0          12.00      0          0
N-E15-NO         7.00       0          12.00      0          0
N-E15-SO         7.00       0          11.20      0          0
N-E09-NO         8.00       0          8.17       0          0
N-E09-SO         8.00       0          9.00       0          0
N-E10-NO         8.00       0          9.00       0          0
N-E10-SO         8.00       0          7.73       0          0
N-E11-NO         8.00       0          7.10       0          0
N-E11-SO         8.00       0          8.90       0          0
N-E12-NO         8.00       0          8.90       0          0
N-E12-SO         8.00       0          11.40      0          0
N-E30-NO         5.00       0          7.90       0          0
N-MIR-010        6.90       0          4.90       0          0
N-E08-NO         6.50       0          12.00      0          0
N-E08-SO         8.00       0          8.00       0          0
N-E18-SO         8.50       0          7.20       0          0
N-E18-NO         7.90       0          5.40       0          0
N-E16-SO         8.49       0          8.60       0          0
N-E16-NO         8.30       0          7.70       0          0
N-E13-SO         10.80      0          6.84       0          0
N-E13-NO         10.80      0          7.40       0          0
N-CCA-020        7.60       0          7.30       0          0
N-CCA-030        7.20       0          7.30       0          0
N-CCC-A5         7.60       0          7.30       0          0
N-CCC-A6         7.00       0          6.50       0          0
N-CCC-A8         6.80       0          6.10       0          0
N-CCC-A4         7.60       0          7.70       0          0
N-RS             7.40       0          6.50       0          0
C9E-06           8.00       0          8.20       0          0
N-CCA-005        8.00       0          8.60       0          0
N-CCC-A2-1       7.00       0          8.30       0          0
N-C9-010         10.61      0          16.20      0          0
N-C9-030         13.17      0          16.00      0          0
N-C9-040         13.17      0          16.00      0          0
C9E-02           10.70      0          15.70      0          0
N-170-010        50.00      0          12.50      0          0
N-170-020        10.00      0          10.00      0          0
N-CCB-010        8.50       0          6.50       0          0
N-CCC-B1         8.50       0          6.50       0          0
C9W-01           7.50       0          18.70      0          0
N-W23-NO         8.00       0          16.50      0          0
N-W27-SW         8.00       0          16.50      0          0
N-W46-WE         8.00       0          3.70       0          0
N-W46-EA         8.00       0          3.70       0          0
N-W47-EA         8.00       0          16.50      0          0
N-W27-NE         8.00       0          16.50      0          0
N-W26-SW         7.92       0          15.00      0          0
N-W26-NE         7.92       0          15.00      0          0
N-W45-WE         8.80       0          4.50       0          0
N-W45-EA         8.80       0          4.50       0          0
N-CLC-010        7.50       0          15.00      0          0
N-207-020        6.50       0          26.50      0          0
N-207-010        8.80       0          21.00      0          0
N-207-030        5.30       0          26.50      0          0
N-E22-SO         6.80       0          6.10       0          0
N-E22-NO         6.80       0          6.50       0          0
N-CCC-A2-2       7.00       0          8.30       0          0
N-AWC-010        6.30       0          19.00      0          0
N-E04-NO         6.30       0          19.00      0          0
N-E04-SO         6.00       0          17.90      0          0
N-E05-NO         6.00       0          17.90      0          0
N-E01-NO         6.40       0          13.40      0          0
N-E01-SO         5.70       0          16.50      0          0
N-E03-NO         6.00       0          17.00      0          0
N-TE-030         11.00      0          5.00       0          0
N-E34-EA         11.00      0          5.80       0          0
N-TE-020         22.40      0          7.50       0          0
N-E33-SO         48.80      0          7.50       0          0
N-E33-NO         48.80      0          7.50       0          0
N-TE-010         48.80      0          7.50       0          0
N-TW-010         13.80      0          5.00       0          0
N-E34-WE         13.80      0          5.00       0          0
N-E32-SO         17.20      0          7.50       0          0
N-E30-SO         5.00       0          7.20       0          0
N-E31-EA         12.00      0          12.90      0          0
N-E35-NO         7.00       0          5.00       0          0
N-TXE-020        8.00       0          16.50      0          0
N-TXW-020        8.00       0          15.00      0          0
N-TXW-010        9.50       0          15.00      0          0
N-TXE-010        8.00       0          16.50      0          0
N-AEC-010        6.00       0          17.00      0          0
N-E37-NO         7.00       0          7.90       0          0
N-E38-SO         9.30       0          12.90      0          0
N-E36-SO         17.20      0          8.75       0          0

[STORAGE]
;;Name           Elev       MaxDepth   InitDepth  Shape      Curve/Params
;;-------------- ---------- ---------- ---------- ---------- ----------
C9W-02           7.50       0          7.00       FUNCTIONAL 2249612.00 0          0
PSL-EAST         7.80       0          6.90       FUNCTIONAL 1866938.00 0          0
PSL-NORTH        8.30       0          6.70       FUNCTIONAL 1395444.00 0          0
N-W40-WE         7.50       -0.70      12.00      FUNCTIONAL 358977.00 0          0
C9E-07           7.20       -0.40      9.40       FUNCTIONAL 1489839.00 0          0
N-C9-020         11.40      -3.38      16.20      FUNCTIONAL 7067392.00 0          0
ANDOVERLK        6.40       -1.00      13.40      FUNCTIONAL 457554.00 0          0
N-E02-NO         5.50       0          16.50      FUNCTIONAL 414090.00 0          0
N-E02-SO         5.70       -0.20      15.30      FUNCTIONAL 277480.00 0          0
N-E31-WE         7.40       0          3.51       FUNCTIONAL 315243.00 0          0
N-E29-NO         9.90       -1.89      4.50       FUNCTIONAL 41861.10 0          0
N-E29-SO         4.00       0          8.75       FUNCTIONAL 13520.00 0          0

[CONDUITS]
;;Name           From             To               Length     Roughness  InOffset   OutOffset  InitFlow   MaxFlow
;;-------------- ---------------- ---------------- ---------- ---------- ---------- ---------- ---------- ----------
C9-47520         N-C9-060         N-C9-050         5640.00    0          -12.20     -12.20     0          0
C9-47828         C9E-03           N-C9-060         6220.00    0          -11.10     -11.10     0          0
CCA10600         N-CCA-010        N-E18-SO         2540.00    0          -4.70      -4.70      0          0
C9-58260         C9E-04           C9E-03           4660.00    0          -12.00     -12.00     0          0
244              ?                ?                0          0          0          0          0          0
249              ?                ?                0          0          0          0          0          0
250              ?                ?                0          0          0          0          0          0
251              ?                ?                0          0          0          0          0          0
252              ?                ?                0          0          0          0          0          0
253              ?                ?                0          0          0          0          0          0
255              ?                ?                0          0          0          0          0          0
C9103215         C9W-03o          C9W-03           2440.00    0          -12.90     -12.90     0          0
C9-87378         N-W08-SO         N-C9-090         5200.00    0          -10.50     -10.50     0          0
C9-69094         SBD-12           N-C9-080         10700.00   0          -12.20     -12.20     0          0
10706900         N-W25-NO         N-W09-SO         5000.00    0          -9.50      -9.50      0          0
17006100         C9W-04o          N-W21-WE         7600.00    0          -7.50      -7.50      0          0
W22              N-W22-SO         N-W22-NO         24.00      0.0240     -1.57      -1.67      0          0
TXW257203        N-W24-EA         N-W26-SW         6000.00    0          -12.50     -12.50     0          0
170R-TYP1        N-W28-EA         N-W31-WE         2630.00    0          -10.00     -10.00     0          0
W40              N-W40-WE         N-W40-EA         167.00     0.0240     -4.70      -4.20      0          0
W33              PSL-EAST         N-PPC-020        44.00      0.0240     -4.40      -5.20      0          0
W34              PSL-NORTH        PSL-EAST         47.00      0.0240     -3.70      -4.20      0          0
W35              C9W-02           PSL-NORTH        47.00      0.0240     -4.50      -4.20      0          0
W32              N-W32-SO         N-W32-NO         128.00     0.0240     -8.80      -8.80      0          0
W38              N-W38-WE         N-W39-WE         105.00     0.0240     -2.80      -1.90      0          0
W37              N-W37-WE         N-W37-EA         52.50      0.0240     -1.20      -1.20      0          0
W36              N-W36-WE         N-W36-EA         127.00     0.0240     -1.20      -1.40      0          0
W43              N-W43-SO         N-W43-NO         195.00     0.0120     -4.36      -3.38      0          0
W01              N-W01-SO         N-W01-NO         103.00     0.0240     -4.36      -4.36      0          0
W02              N-W02-SO         N-W02-NO         100.00     0.0240     -3.51      -4.01      0          0
W03              N-W03-SO         N-W03-NO         97.00      0.0240     -4.58      -4.58      0          0
W04              N-W04-SO         N-W04-NO         111.00     0.0120     -2.20      -1.40      0          0
W06              N-W06-WE         N-W06-EA         334.00     0.0240     -0.88      -0.39      0          0
W05              N-W06-WE         N-W05-NO         135.00     0.0240     -10.00     -9.40      0          0
W07              N-W47-WE         N-C9-090         52.00      0.0240     -3.42      -3.92      0          0
W08              N-W08-NO         N-W08-SO         60.00      0.0240     -1.01      -1.01      0          0
SBDC5            SBD-04           N-W08-NO         10500.00   0          -4.50      -4.50      0          0
W09              N-W09-SO         N-W09-NO         30.00      0.0240     -8.31      -8.31      0          0
C9-96261         C9W-03           N-W09-NO         15790.00   0          -9.20      -9.20      0          0
SBDC7            SBD-05           C9W-03           18000.00   0          -6.00      -6.00      0          0
W21              N-W21-WE         C9W-04           72.00      0.0240     -0.25      -0.25      0          0
W25              N-W25-SO         N-W25-NO         141.00     0.0240     -1.85      -3.55      0          0
W28              N-W28-WE         N-W28-EA         297.00     0.0120     -3.20      -3.22      0          0
W31              N-W31-WE         N-W31-EA         120.00     0.0240     -0.50      -0.70      0          0
W30              N-W31-WE         C9W-02           123.00     0.0240     -3.70      -1.50      0          0
W39              N-W39-WE         N-W39-EA         106.00     0.0240     -4.90      -3.90      0          0
W41              N-W41-SO         N-W41-NO         800.00     0.0240     -6.59      -6.59      0          0
GGC01804         N-W31-EA         N-W36-WE         2550.00    0          -9.50      -9.50      0          0
17006101         C9W-04           N-W22-SO         7280.00    0          -7.50      -7.50      0          0
10701800         N-W24-WE         N-W25-SO         4070.00    0          -9.00      -9.00      0          0
RRC38000         N-W41-NO         N-E23-WE         400.00     0          -8.00      -8.00      0          0
E23              N-E23-WE         N-E23-EA         130.00     0.0120     -2.09      -2.30      0          0
RRC38400         N-E23-WE         N-W42-SO         1150.00    0          -8.50      -8.50      0          0
RRC40100         N-W42-NO         N-W43-SO         1410.00    0          -8.50      -8.50      0          0
RRC40101         N-W43-NO         N-W44-SO         1020.00    0          -8.50      -8.50      0          0
RRC40102         N-W44-NO         N-W01-SO         600.00     0          -8.50      -8.50      0          0
RRC40103         N-W01-NO         N-W02-SO         690.00     0          -8.50      -8.50      0          0
RRC40104         N-W02-NO         N-W03-SO         2440.00    0          -8.50      -8.50      0          0
RRC40105         N-W03-NO         N-W04-SO         1150.00    0          -8.50      -8.50      0          0
RRC40106         N-W04-NO         N-C9-070         2600.00    0          -8.50      -8.50      0          0
HHC02500         N-W06-EA         N-W04-SO         5050.00    0          -7.90      -7.90      0          0
C9-68000         N-C9-080         N-C9-070         5000.00    0          -11.50     -11.50     0          0
67-00600         N-W05-NO         N-C9-080         2000.00    0          -8.20      -8.20      0          0
PPC06050         N-W32-NO         C9W-01           5060.00    0          -16.20     -16.20     0          0
PPC00851         N-PPC-020        N-W32-SO         1340.00    0          -12.30     -12.30     0          0
GGC01800         N-W40-EA         N-W41-SO         5410.00    0          -9.50      -9.50      0          0
GGC01801         N-W39-EA         N-W40-WE         3100.00    0          -9.50      -9.50      0          0
GGC01802         N-W37-EA         N-W38-WE         830.00     0          -9.50      -9.50      0          0
GGC01803         N-W36-EA         N-W37-WE         1680.00    0          -9.50      -9.50      0          0
3000ft           388              389              0          0          0          0          0          0
395              ?                ?                0          0          0          0          0          0
397              ?                ?                0          0          0          0          0          0
400              ?                ?                0          0          0          0          0          0
3000-ft          388              398              0          0          0          0          0          0
TXW257202        N-W22-NO         N-W24-WE         1350.00    0          -12.50     -12.50     0          0
W24              N-W24-WE         N-W24-EA         33.00      0.0240     0.03       0.53       0          0
17006102         N-W22-SO         N-W23-SO         750.00     0          -7.50      -7.50      0          0
170R-TYP         N-170-010        N-W28-WE         2200.00    0          -10.00     -10.00     0          0
SBDC4            SBD-03           SBD-12           400.00     0          -4.70      -4.70      0          0
C9-79418         N-C9-090         SBD-12           2800.00    0          -12.20     -12.20     0          0
SBDC3            SBD-13           N-C9-080         3200.00    0.0140     -5.30      -5.30      0          0
C9-58382         N-C9-070         C9E-04           5370.00    0          -13.80     -13.80     0          0
SBDC2            SBD-02           N-E14-NO         800.00     0          -7.30      -7.30      0          0
E14              N-E14-NO         N-E14-SO         140.00     0.0240     -6.30      -6.30      0          0
PAC00600         N-E14-SO         N-E15-NO         820.00     0          -9.50      -9.50      0          0
E15              N-E15-NO         N-E15-SO         132.00     0.0240     -6.30      -6.30      0          0
PAC01400         N-E15-SO         C9E-04           1060.00    0          -8.70      -8.70      0          0
SBDC1            SBD-01           N-E08-NO         800.00     0          -9.50      -9.50      0          0
E09              N-E09-NO         N-E09-SO         70.00      0.0240     -5.67      -4.49      0          0
27-01500         N-E09-SO         N-E10-NO         740.00     0          -6.50      -6.50      0          0
E10              N-E10-NO         N-E10-SO         130.00     0.0240     -5.27      -5.23      0          0
27-02100         N-E10-SO         N-E11-NO         430.00     0          -4.60      -4.60      0          0
27-02400         N-E11-SO         N-E12-NO         380.00     0          -6.40      -6.40      0          0
E12              N-E12-NO         N-E12-SO         170.00     0.0240     -5.06      -5.09      0          0
27-03400         N-E12-SO         N-C9-060         960.00     0          -8.90      -8.90      0          0
TW-BC            MIR-01           N-E37-NO         200.00     0          -2.50      -2.50      0          0
TE-BC            MIR-01           N-E35-NO         200.00     0          -2.50      -2.50      0          0
E08              N-E08-NO         N-E08-SO         138.00     0.0120     -3.30      -2.85      0          0
27-00500         N-E08-SO         N-E09-NO         780.00     0          -5.50      -5.50      0          0
E18              N-E18-SO         N-E18-NO         210.00     0.0240     -2.00      -2.50      0          0
E16              N-E16-SO         N-E16-NO         175.00     0.0240     -1.51      -1.84      0          0
CCA18200         N-E16-NO         C9E-03           2770.00    0          -5.20      -5.20      0          0
E13              N-E13-SO         N-E13-NO         143.00     0.0240     -4.34      -4.38      0          0
CCB06800         N-E13-NO         N-C9-060         2230.00    0          -4.90      -4.90      0          0
CCA00600         N-E23-EA         C9E-07           1630.00    0          -6.90      -6.90      0          0
CCC-A6           N-CCC-A6         N-CCA-030        1110.00    0          -4.00      -4.00      0          0
CCA04800         N-CCA-030        N-CCA-020        760.00     0          -3.20      -3.20      0          0
CCC-A5           N-CCC-A5         N-CCA-020        2350.00    0          -4.80      -4.80      0          0
CCC-A8-2         N-CCC-A8         N-E22-SO         1640.00    0          -3.60      -3.60      0          0
CCA03800         C9E-07           N-CCA-030        1850.00    0          -4.80      -4.80      0          0
CCA07600         N-CCA-020        N-CCA-010        2910.00    0          -4.70      -4.70      0          0
CCC-A4           N-CCC-A4         N-CCA-010        2720.00    0          -5.20      -5.20      0          0
REALSITE         N-RS             C9E-06           1300.00    0          -4.00      -4.00      0          0
CCA11800         N-E18-NO         C9E-06           1070.00    0          -2.90      -2.90      0          0
CCA13400         C9E-06           N-CCA-005        3200.00    0          -5.70      -5.70      0          0
CCC-A2-1         N-CCC-A2-1       N-CCA-005        1300.00    0          -5.40      -5.40      0          0
CCA15400         N-CCA-005        N-E16-SO         940.00     0          -6.10      -6.10      0          0
C9-15358         N-C9-010         S-29             7690.00    0          -12.90     -12.90     0          0
C9-24073         N-C9-020         N-C9-010         4435.00    0          -13.70     -13.70     0          0
C9-25966         C9E-01           N-C9-020         2195.00    0          -11.90     -11.90     0          0
C9-26212         N-C9-030         C9E-01           3960.00    0          -13.30     -13.30     0          0
C9-31929         N-C9-040         N-C9-030         1635.00    0          -13.50     -13.50     0          0
C9-34240         C9E-02           N-C9-040         2600.00    0          -12.20     -12.20     0          0
C9-42000         N-C9-050         C9E-02           6715.00    0          -13.20     -13.20     0          0
C9-87379         N-W09-NO         N-W08-SO         5320.00    0          -10.50     -10.50     0          0
PPC00850         N-W39-WE         N-PPC-020        3820.00    0          -12.30     -12.30     0          0
17006103         N-170-020        N-W23-SO         5150.00    0          -7.50      -7.50      0          0
CCB02100         C9E-05           N-CCB-010        2280.00    0          -3.60      -3.60      0          0
CCB04600         N-CCB-010        N-E13-SO         2820.00    0          -3.60      -3.60      0          0
CCC-B1           N-CCC-B1         N-CCB-010        1670.00    0          -4.00      -4.00      0          0
CLC01300         C9W-01           N-CLC-010        3500.00    0          -12.00     -12.00     0          0
W23              N-W23-SO         N-W23-NO         44.00      0.0240     -2.47      -2.47      0          0
TXE254904        N-W23-NO         N-W27-SW         7250.00    0          -14.00     -14.00     0          0
W27              N-W27-SW         N-W27-NE         61.60      0.0240     -0.87      -0.87      0          0
W46              N-W46-WE         N-W46-EA         503.00     0.0120     -1.20      -1.20      0          0
TXE254906        N-TXE-010        N-W47-EA         4350.00    0          -14.00     -14.00     0          0
W47              N-W47-EA         N-W47-WE         320.00     0.0120     -2.00      -2.30      0          0
TXE254905        N-W27-NE         N-TXE-020        950.00     0          -14.00     -14.00     0          0
W26              N-W26-SW         N-W26-NE         60.00      0.0240     -1.07      -0.57      0          0
TXW257204        N-W26-NE         N-TXW-020        2850.00    0          -12.50     -12.50     0          0
W45              N-W45-WE         N-W45-EA         514.00     0.0120     -2.00      -2.00      0          0
TXW257205        N-TXW-010        N-W47-WE         2850.00    0          -12.50     -12.50     0          0
CLC04500         N-CLC-010        N-W06-WE         1670.00    0          -12.50     -12.50     0          0
12-00001         N-MIR-010        N-207-020        2530.00    0          -2.40      -2.40      0          0
20701174         N-207-020        N-207-010        2350.00    0          -16.50     -16.50     0          0
15-00800         N-207-010        N-C9-050         1600.00    0          -18.50     -18.50     0          0
20703454         N-207-030        N-207-020        2400.00    0          -24.00     -24.00     0          0
E22              N-E22-SO         N-E22-NO         70.00      0.0240     -2.00      -2.01      0          0
CCC-A8-1         N-E22-NO         C9E-07           680.00     0          -4.00      -4.00      0          0
CCC-A2-2         N-CCC-A2-2       N-CCC-A2-1       2500.00    0          -5.80      -5.80      0          0
AWC00500         N-AWC-010        N-E04-NO         710.00     0          -16.50     -16.50     0          0
AWC01362         N-E04-SO         N-E05-NO         1530.00    0          -15.40     -15.40     0          0
E05              N-E05-NO         C9E-02           29.00      0.0240     -2.32      -2.38      0          0
AEC00635         ANDOVERLK        N-E01-NO         1010.00    0          -10.90     -10.90     0          0
E01              N-E01-NO         N-E01-SO         72.00      0.0240     -4.00      -4.00      0          0
AEC00380         N-E01-SO         N-E02-NO         860.00     0          -14.00     -14.00     0          0
E02              N-E02-NO         N-E02-SO         68.00      0.0240     -3.00      -3.00      0          0
AEC01300         N-E02-SO         N-AEC-010        420.00     0          -12.80     -12.80     0          0