;; SWMM5 .inp converted from XPSWMM .xp file
;; Generated by XPSWMM Card Reader
;; Source format: XP_CARD | Original title: UPPER PARRAMATTA RIVER EXTRAN MODEL - 100YR FLOOD

[TITLE]
;;Project Title/Notes
UPPER PARRAMATTA RIVER EXTRAN MODEL - 100YR FLOOD

[OPTIONS]
FLOW_UNITS           CMS
INFILTRATION         HORTON
FLOW_ROUTING         DYNWAVE
LINK_OFFSETS         DEPTH
MIN_SLOPE            0.0
ALLOW_PONDING        NO
SKIP_STEADY_STATE    NO
ROUTING_STEP         00:00:20
VARIABLE_STEP        0.75
INERTIAL_DAMPING     PARTIAL
NORMAL_FLOW_LIMITED  BOTH
MAX_TRIALS           75
HEAD_TOLERANCE       .001

[JUNCTIONS]
;;Name           Elev       MaxDepth   InitDepth  SurDepth   Aponded
;;-------------- ---------- ---------- ---------- ---------- ----------
0                70.00      0          1.00       0          0
0                70.00      0          1.00       0          0
0                70.00      0          1.00       0          0
0                70.00      0          1.00       0          0
0                70.00      0          1.00       0          0
0                70.00      0          1.00       0          0
0                70.00      0          1.00       0          0
0                70.00      0          1.00       0          0
0                70.00      0          1.00       0          0
0                70.00      0          1.00       0          0
0                70.00      0          1.00       0          0
0                70.00      0          1.00       0          0
0                70.00      0          1.00       0          0
0                70.00      0          1.00       0          0
0                70.00      0          1.00       0          0
0                70.00      0          1.00       0          0
0                70.00      0          1.00       0          0
0                70.00      0          1.00       0          0
0                70.00      0          1.00       0          0
0                70.00      0          1.00       0          0
0                70.00      0          1.00       0          0
0                70.00      0          1.00       0          0
0                70.00      0          1.00       0          0
0                70.00      0          1.00       0          0
0                70.00      0          1.00       0          0
0                70.00      0          1.00       0          0
0                70.00      0          1.00       0          0

[STORAGE]
;;Name           Elev       MaxDepth   InitDepth  Shape      Curve/Params
;;-------------- ---------- ---------- ---------- ---------- ----------
0                70.00      -39.44     1.00       FUNCTIONAL 0 0          0

[CONDUITS]
;;Name           From             To               Length     Roughness  InOffset   OutOffset  InitFlow   MaxFlow
;;-------------- ---------------- ---------------- ---------- ---------- ---------- ---------- ---------- ----------
P13.1            P13              0                55.00      0.0140     9.10       9.10       0          0
P2.1             P2               0                50.00      0          1.56       1.56       0          0
180              0                0                50.00      0          0.56       0.40       0          0
181              0                0                70.00      0          0.40       0.35       0          0
183              0                0                52.00      0          0.30       0.25       0          0
184              0                0                130.00     0          0.25       0.20       0          0
185              0                0                84.00      0          0.20       0.18       0          0
240              0                0                600.00     0          -1.67      -2.43      0          0
241              0                0                350.00     0          -2.43      -3.36      0          0
242              0                0                250.00     0          -3.36      -3.18      0          0
243              0                0                150.00     0          -3.18      -2.04      0          0
244              0                0                470.00     0          -2.04      -3.25      0          0
245              0                0                200.00     0          -3.25      -2.59      0          0
246              0                0                180.00     0          -2.59      -1.88      0          0
247              0                0                200.00     0          -1.88      -3.52      0          0
248              0                0                200.00     0          -3.52      -3.94      0          0
249              0                0                150.00     0          -3.94      -3.71      0          0
250              0                0                600.00     0          -3.71      -2.87      0          0
251              0                0                260.00     0          -2.87      -3.77      0          0
266              0                0                490.00     0          -3.77      -4.58      0          0
267              0                0                500.00     0          -4.58      -4.90      0          0
276              0                0                580.00     0          -1.00      -1.67      0          0
191              0                0                161.00     0          0          -1.00      0          0
187              0                0                107.00     0          0.17       0.07       0          0
P8.1             P8               0                75.00      0          2.30       2.30       0          0
P5               P5.1             0                30.00      0.0500     0.07       0.07       0          0
291              0                0                118.00     0          0.07       0.05       0          0

[XSECTIONS]
;;Link           Shape        Geom1      Geom2      Geom3      Geom4      Barrels
;;-------------- ------------ ---------- ---------- ---------- ---------- ----------
P13.1            IRREGULAR    30.00      0          0          0          1
P2.1             IRREGULAR    30.00      0          0          0          1
180              IRREGULAR    30.00      0          0          0          1
181              IRREGULAR    30.00      0          0          0          1
183              IRREGULAR    30.00      0          0          0          1
184              IRREGULAR    30.00      0          0          0          1
185              IRREGULAR    30.00      0          0          0          1
240              IRREGULAR    25.00      0          0          0          1
241              IRREGULAR    25.00      0          0          0          1
242              IRREGULAR    25.00      0          0          0          1
243              IRREGULAR    25.00      0          0          0          1
244              IRREGULAR    25.00      0          0          0          1
245              IRREGULAR    25.00      0          0          0          1
246              IRREGULAR    25.00      0          0          0          1
247              IRREGULAR    25.00      0          0          0          1
248              IRREGULAR    25.00      0          0          0          1
249              IRREGULAR    25.00      0          0          0          1
250              IRREGULAR    25.00      0          0          0          1
251              IRREGULAR    25.00      0          0          0          1
266              IRREGULAR    25.00      0          0          0          1
267              IRREGULAR    25.00      0          0          0          1
276              IRREGULAR    25.00      0          0          0          1
191              IRREGULAR    25.00      0          0          0          1
187              IRREGULAR    30.00      0          0          0          1
P8.1             IRREGULAR    30.00      0          0          0          1
P5               RECT_CLOSED  5.60       55.40      0          0          1
291              IRREGULAR    30.00      0          0          0          1

[LOSSES]
;;Link           Inlet      Outlet     Average    Flap Gate
;;-------------- ---------- ---------- ---------- ----------
P13.1            0          0          0          NO
P2.1             0          0          0          NO
180              0          0          0          NO
181              0          0          0          NO
183              0          0          0          NO
184              0          0          0          NO
185              0          0          0          NO
240              0          0          0          NO
241              0          0          0          NO
242              0          0          0          NO
243              0          0          0          NO
244              0          0          0          NO
245              0          0          0          NO
246              0          0          0          NO
247              0          0          0          NO
248              0          0          0          NO
249              0          0          0          NO
250              0          0          0          NO
251              0          0          0          NO
266              0          0          0          NO
267              0          0          0          NO
276              0          0          0          NO
191              0          0          0          NO
187              0          0          0          NO
P8.1             0          0          0          NO
P5               0          0          0          NO
291              0          0          0          NO

[COORDINATES]
;;Node           X-Coord            Y-Coord
;;-------------- ------------------ ------------------
0                45.23              -396.43           
0                47.47              -370.84           
0                42.19              -352.44           
0                43.49              -334.92           
0                43.92              -314.68           
0                45.23              -297.94           
0                46.09              -276.92           
0                43.89              -253.56           
0                44.05              -227.26           
0                42.91              -187.93           
0                43.20              -167.63           
0                59.89              -111.82           
0                79.65              -63.24            
0                80.12              -27.27            
0                65.84              8.96              
0                85.25              41.75             
0                72.81              76.71             
0                95.04              117.89            
0                97.37              143.82            
0                99.70              165.99            
0                106.32             188.27            
0                111.82             210.75            
0                114.15             232.50            
0                114.62             254.67            
0                103.23             274.14            
0                114.62             300.27            
0                49.40              -146.51           
0                59.66              -209.61           

[MAP]
DIMENSIONS 42.19 -396.43 114.62 300.27
Units      None

[REPORT]
INPUT            YES
SUBCATCHMENTS    ALL
NODES            ALL
LINKS            ALL



