;; SWMM5 .inp converted from XPSWMM .xp file
;; Generated by XPSWMM Card Reader
;; Source format: XP_CARD | Original title: (none)

[TITLE]
;;Project Title/Notes
Converted from XPSWMM .xp file

[OPTIONS]
FLOW_UNITS           CFS
INFILTRATION         HORTON
FLOW_ROUTING         DYNWAVE
LINK_OFFSETS         DEPTH
MIN_SLOPE            0.0
ALLOW_PONDING        NO
SKIP_STEADY_STATE    NO
ROUTING_STEP         00:00:03
VARIABLE_STEP        0.75
INERTIAL_DAMPING     PARTIAL
NORMAL_FLOW_LIMITED  BOTH

[JUNCTIONS]
;;Name           Elev       MaxDepth   InitDepth  SurDepth   Aponded
;;-------------- ---------- ---------- ---------- ---------- ----------
28-3-1           692.56     0          0          0          0
28-3-2           691.50     0          0          0          0
28-3-3           691.01     0          0          0          0
28-3-4           692.26     0          0          0          0
28-3-5           692.50     0          0          0          0
28-3-6           693.78     0          0          0          0
28-3-7           695.54     0          0          0          0
28-3-8           694.76     0          0          0          0
28-3-9           697.47     0          0          0          0
28-3-10          697.18     0          0          0          0
28-3-11          698.02     0          0          0          0
28-3-12          699.31     0          0          0          0
28-3-13          699.16     0          0          0          0
28-3-14          699.70     0          0          0          0
28-3-15          700.21     0          0          0          0
28-3-16          700.28     0          0          0          0
28-3-17          701.07     0          0          0          0
28-3-18          701.83     0          0          0          0
28-3-19          703.21     0          0          0          0
28-3-20          710.76     0          0          0          0
28-3-21          708.93     0          0          0          0
28-3-22          709.43     0          0          0          0
28-3-23          709.62     0          0          0          0
28-3-24          711.73     0          0          0          0
28-3-25          713.83     0          0          0          0
28-3-26          713.87     0          0          0          0
28-3-27          700.33     0          0          0          0
28-3-28          701.66     0          0          0          0
28-3-29          703.09     0          0          0          0
28-3-30          704.79     0          0          0          0
28-3-31          707.04     0          0          0          0
28-3-32          710.58     0          0          0          0
28-3-33          710.88     0          0          0          0
28-3-34          714.14     0          0          0          0
28-3-35          714.87     0          0          0          0
28-3-36          715.22     0          0          0          0
28-3-37          698.21     0          0          0          0
28-3-38          700.30     0          0          0          0
28-3-39          701.64     0          0          0          0
28-3-40          705.09     0          0          0          0
28-3-41          692.71     0          0          0          0
28-3-42          693.00     0          0          0          0
28-3-43          694.77     0          0          0          0
28-3-49          700.68     0          0          0          0
28-3-48          698.75     0          0          0          0
28-3-47          698.62     0          0          0          0
28-3-46          697.93     0          0          0          0
28-3-45          696.20     0          0          0          0
28-3-44          694.93     0          0          0          0
28-3-50          693.52     0          0          0          0
28-3-51          695.40     0          0          0          0
28-3-52          697.36     0          0          0          0
28-3-53          699.86     0          0          0          0
28-3-54          701.36     0          0          0          0
28-3-55          697.08     0          0          0          0
28-3-56          698.20     0          0          0          0
28-3-57          703.75     0          0          0          0
28-3-58          705.55     0          0          0          0
28-3-59          707.58     0          0          0          0
28-3-60          709.41     0          0          0          0
28-3-61          708.75     0          0          0          0
28-3-62          709.46     0          0          0          0
28-3-63          710.14     0          0          0          0
28-3-64          710.61     0          0          0          0
28-3-65          710.80     0          0          0          0
28-3-66          711.46     0          0          0          0
28-3-1A          700.00     0          0          0          0
146              702.00     0          0          0          0
147              702.00     0          0          0          0
150              700.00     0          0          0          0
C1-2             700.00     0          0          0          0
155              700.00     0          0          0          0
157              700.00     0          0          0          0
163              700.00     0          0          0          0
167              696.00     0          0          0          0
169              696.00     0          0          0          0
171              696.00     0          0          0          0
173              696.00     0          0          0          0
C1-4             696.00     0          0          0          0
177              694.00     0          0          0          0
179              694.00     0          0          0          0
181              694.00     0          0          0          0
183              694.00     0          0          0          0
185              694.00     0          0          0          0

[CONDUITS]
;;Name           From             To               Length     Roughness  InOffset   OutOffset  InitFlow   MaxFlow
;;-------------- ---------------- ---------------- ---------- ---------- ---------- ---------- ---------- ----------
L6-7             28-3-7           28-3-6           310.00     0.0130     686.67     685.47     0          0
L5-6             28-3-6           28-3-5           286.00     0.0130     685.47     684.29     0          0
L4-5             28-3-5           28-3-4           78.00      0.0130     684.29     683.97     0          0
L3-4             28-3-4           28-3-3           272.00     0.0130     683.46     682.41     0          0
L2-3             28-3-3           28-3-2           42.00      0.0130     681.41     681.36     0          0
L1-2             28-3-2           28-3-1           369.00     0.0130     681.36     680.56     0          0
L9-10            28-3-10          28-3-9           205.00     0.0130     689.96     688.70     0          0
L8-9             28-3-9           28-3-8           318.00     0.0130     688.20     687.02     0          0
L7-8             28-3-8           28-3-7           93.00      0.0130     687.02     686.67     0          0
L15-16           28-3-16          28-3-15          26.00      0.0130     693.51     693.33     0          0
L14-15           28-3-15          28-3-14          71.00      0.0130     693.33     692.94     0          0
L13-14           28-3-14          28-3-13          89.00      0.0130     692.94     692.34     0          0
L12-13           28-3-13          28-3-12          46.00      0.0130     692.34     691.98     0          0
L11-12           28-3-12          28-3-11          83.00      0.0130     691.98     691.26     0          0
L10-11           28-3-11          28-3-10          126.00     0.0130     690.76     689.96     0          0
L18-19           28-3-19          28-3-18          115.00     0.0130     695.81     695.06     0          0
L17-18           28-3-18          28-3-17          92.00      0.0130     694.81     694.31     0          0
L16-17           28-3-17          28-3-16          126.00     0.0130     694.31     693.51     0          0
L25-26           28-3-26          28-3-25          40.00      0.0130     708.53     708.29     0          0
L24-25           28-3-25          28-3-24          150.00     0.0130     708.19     707.29     0          0
L23-24           28-3-24          28-3-23          200.00     0.0130     707.19     705.59     0          0
L22-23           28-3-23          28-3-22          79.00      0.0130     703.61     703.21     0          0
L21-22           28-3-22          28-3-21          43.00      0.0130     703.11     702.73     0          0
L20-21           28-3-21          28-3-20          22.00      0.0130     702.73     702.51     0          0
L19-20           28-3-20          28-3-19          192.00     0.0130     702.31     696.56     0          0
L34-35           28-3-35          28-3-34          51.00      0.0130     709.93     709.31     0          0
L33-34           28-3-34          28-3-33          288.00     0.0130     709.31     705.81     0          0
L32-33           28-3-33          28-3-32          42.00      0.0130     705.81     705.17     0          0
L31-32           28-3-32          28-3-31          202.00     0.0130     704.92     701.36     0          0
L30-31           28-3-31          28-3-30          123.00     0.0130     701.11     699.21     0          0
L29-30           28-3-30          28-3-29          111.00     0.0130     698.96     697.06     0          0
L28-29           28-3-29          28-3-28          194.00     0.0130     696.56     695.31     0          0
L27-28           28-3-28          28-3-27          244.00     0.0130     695.31     693.89     0          0
L15-27           28-3-27          28-3-15          26.00      0.0130     693.89     693.76     0          0
L35-36           28-3-36          28-3-35          172.00     0.0130     710.41     709.93     0          0
L39-40           28-3-40          28-3-39          319.00     0.0130     699.06     696.31     0          0
L38-39           28-3-39          28-3-38          42.00      0.0130     695.56     694.86     0          0
L37-38           28-3-38          28-3-37          243.00     0.0130     694.66     692.56     0          0
L11-37           28-3-37          28-3-11          44.00      0.0130     692.56     692.28     0          0
L4-41            28-3-41          28-3-4           52.00      0.0130     686.70     686.36     0          0
L42-43           28-3-43          28-3-42          162.00     0.0130     688.86     687.89     0          0
L41-42           28-3-42          28-3-41          129.00     0.0130     687.89     686.70     0          0
L48-49           28-3-49          28-3-48          350.00     0.0130     695.56     693.56     0          0
L47-48           28-3-48          28-3-47          47.00      0.0130     693.31     693.07     0          0
L46-47           28-3-47          28-3-46          84.00      0.0130     693.07     692.48     0          0
L45-46           28-3-46          28-3-45          316.00     0.0130     692.48     690.72     0          0
L44-45           28-3-45          28-3-44          231.00     0.0130     690.72     689.27     0          0
L43-44           28-3-44          28-3-43          27.00      0.0130     689.27     689.11     0          0
L53-54           28-3-54          28-3-53          209.00     0.0130     695.66     694.46     0          0
L52-53           28-3-53          28-3-52          289.00     0.0130     694.16     691.56     0          0
L51-52           28-3-52          28-3-51          218.00     0.0130     691.56     689.36     0          0
L50-51           28-3-51          28-3-50          119.00     0.0130     689.36     687.86     0          0
L2-50            28-3-50          28-3-2           140.00     0.0130     687.86     684.06     0          0
L55-56           28-3-56          28-3-55          73.00      0.0130     692.66     691.36     0          0
L1-55            28-3-55          28-3-1           188.00     0.0130     691.36     687.98     0          0
L56-57           28-3-57          28-3-56          303.00     0.0130     698.21     692.66     0          0
L57-58           28-3-58          28-3-57          181.00     0.0130     700.06     698.21     0          0
L65-66           28-3-66          28-3-65          127.00     0.0130     706.41     705.76     0          0
L64-65           28-3-65          28-3-64          43.00      0.0130     705.76     705.56     0          0
L63-64           28-3-64          28-3-63          109.00     0.0130     705.31     704.81     0          0
L62-63           28-3-63          28-3-62          119.00     0.0130     704.81     704.21     0          0
L61-62           28-3-62          28-3-61          140.00     0.0130     704.21     703.81     0          0
L60-61           28-3-61          28-3-60          108.00     0.0130     703.31     703.06     0          0
L59-60           28-3-60          28-3-59          291.00     0.0130     702.86     701.86     0          0
L58-59           28-3-59          28-3-58          212.00     0.0130     701.86     700.06     0          0
L1A-L1           28-3-1           28-3-1A          50.00      0.0130     680.56     684.51     0          0
5x6 box          Shepard Rd       2ND 48"          71.00      0.0130     683.91     683.54     0          0
x-sec            28-3-1A          150              121.00     0          684.51     684.41     0          0
x-sec            150              C1-2             137.00     0          684.41     684.31     0          0
x-sec            C1-2             155              199.00     0          684.31     684.21     0          0
x-sec            155              157              195.00     0          684.21     684.11     0          0
x-sec            157              163              155.00     0          684.11     684.01     0          0
x-sec            163              146              135.00     0          684.01     683.91     0          0
x-sec            147              167              50.00      0          683.54     683.60     0          0
x-sec            167              169              144.00     0          683.60     683.60     0          0
x-sec            169              171              191.00     0          683.60     683.10     0          0
x-sec            171              173              188.00     0          683.10     682.70     0          0
x-sec            173              C1-4             223.00     0          682.70     682.30     0          0
x-sec            C1-4             177              288.00     0          682.30     681.20     0          0
x-sec            177              179              207.00     0          681.20     680.50     0          0
x-sec            179              181              90.00      0          680.50     680.20     0          0
x-sec            181              183              207.00     0          680.20     679.30     0          0
x-sec            183              185              212.00     0          679.30     678.30     0          0

[XSECTIONS]
;;Link           Shape        Geom1      Geom2      Geom3      Geom4      Barrels
;;-------------- ------------ ---------- ---------- ---------- ---------- ----------
L6-7             CIRCULAR     4.00       0          0          0          1
L5-6             CIRCULAR     4.00       0          0          0          1
L4-5             CIRCULAR     4.00       0          0          0          1
L3-4             CIRCULAR     4.50       0          0          0          1
L2-3             CIRCULAR     5.50       0          0          0          1
L1-2             CIRCULAR     5.50       0          0          0          1
L9-10            CIRCULAR     3.50       0          0          0          1
L8-9             CIRCULAR     4.00       0          0          0          1
L7-8             CIRCULAR     4.00       0          0          0          1
L15-16           CIRCULAR     3.00       0          0          0          1
L14-15           CIRCULAR     3.00       0          0          0          1
L13-14           CIRCULAR     3.00       0          0          0          1
L12-13           CIRCULAR     3.00       0          0          0          1
L11-12           CIRCULAR     3.00       0          0          0          1
L10-11           CIRCULAR     3.50       0          0          0          1
L18-19           CIRCULAR     3.00       0          0          0          1
L17-18           CIRCULAR     3.00       0          0          0          1
L16-17           CIRCULAR     3.00       0          0          0          1
L25-26           CIRCULAR     1.50       0          0          0          1
L24-25           CIRCULAR     1.50       0          0          0          1
L23-24           CIRCULAR     1.50       0          0          0          1
L22-23           CIRCULAR     2.00       0          0          0          1
L21-22           CIRCULAR     2.00       0          0          0          1
L20-21           CIRCULAR     2.00       0          0          0          1
L19-20           CIRCULAR     2.25       0          0          0          1
L34-35           CIRCULAR     1.25       0          0          0          1
L33-34           CIRCULAR     1.25       0          0          0          1
L32-33           CIRCULAR     1.25       0          0          0          1
L31-32           CIRCULAR     1.25       0          0          0          1
L30-31           CIRCULAR     1.50       0          0          0          1
L29-30           CIRCULAR     1.50       0          0          0          1
L28-29           CIRCULAR     2.00       0          0          0          1
L27-28           CIRCULAR     2.00       0          0          0          1
L15-27           CIRCULAR     2.00       0          0          0          1
L35-36           CIRCULAR     1.25       0          0          0          1
L39-40           CIRCULAR     1.25       0          0          0          1
L38-39           CIRCULAR     2.00       0          0          0          1
L37-38           CIRCULAR     2.00       0          0          0          1
L11-37           CIRCULAR     2.00       0          0          0          1
L4-41            CIRCULAR     1.75       0          0          0          1
L42-43           CIRCULAR     1.75       0          0          0          1
L41-42           CIRCULAR     1.75       0          0          0          1
L48-49           CIRCULAR     1.25       0          0          0          1
L47-48           CIRCULAR     1.25       0          0          0          1
L46-47           CIRCULAR     1.50       0          0          0          1
L45-46           CIRCULAR     1.75       0          0          0          1
L44-45           CIRCULAR     1.75       0          0          0          1
L43-44           CIRCULAR     1.75       0          0          0          1
L53-54           CIRCULAR     1.25       0          0          0          1
L52-53           CIRCULAR     1.50       0          0          0          1
L51-52           CIRCULAR     1.50       0          0          0          1
L50-51           CIRCULAR     1.50       0          0          0          1
L2-50            CIRCULAR     1.50       0          0          0          1
L55-56           CIRCULAR     1.75       0          0          0          1
L1-55            CIRCULAR     1.75       0          0          0          1
L56-57           CIRCULAR     1.75       0          0          0          1
L57-58           CIRCULAR     1.75       0          0          0          1
L65-66           CIRCULAR     1.25       0          0          0          1
L64-65           CIRCULAR     1.25       0          0          0          1
L63-64           CIRCULAR     1.50       0          0          0          1
L62-63           CIRCULAR     1.50       0          0          0          1
L61-62           CIRCULAR     1.50       0          0          0          1
L60-61           CIRCULAR     2.00       0          0          0          1
L59-60           CIRCULAR     2.00       0          0          0          1
L58-59           CIRCULAR     1.75       0          0          0          1
L1A-L1           CIRCULAR     5.50       0          0          0          1
5x6 box          RECT_CLOSED  5.00       6.00       0          0          1
x-sec            IRREGULAR    0          0          0          0          1
x-sec            IRREGULAR    0          0          0          0          1
x-sec            IRREGULAR    0          0          0          0          1
x-sec            IRREGULAR    0          0          0          0          1
x-sec            IRREGULAR    0          0          0          0          1
x-sec            IRREGULAR    0          0          0          0          1
x-sec            IRREGULAR    0          0          0          0          1
x-sec            IRREGULAR    0          0          0          0          1
x-sec            IRREGULAR    0          0          0          0          1
x-sec            IRREGULAR    0          0          0          0          1
x-sec            IRREGULAR    0          0          0          0          1
x-sec            IRREGULAR    0          0          0          0          1
x-sec            IRREGULAR    0          0          0          0          1
x-sec            IRREGULAR    0          0          0          0          1
x-sec            IRREGULAR    0          0          0          0          1
x-sec            IRREGULAR    0          0          0          0          1

[LOSSES]
;;Link           Inlet      Outlet     Average    Flap Gate
;;-------------- ---------- ---------- ---------- ----------
L6-7             0          0          0          NO
L5-6             0          0          0          NO
L4-5             0          0          0          NO
L3-4             0          0          0          NO
L2-3             0          0          0          NO
L1-2             0          0          0          NO
L9-10            0          0          0          NO
L8-9             0          0          0          NO
L7-8             0          0          0          NO
L15-16           0          0          0          NO
L14-15           0          0          0          NO
L13-14           0          0          0          NO
L12-13           0          0          0          NO
L11-12           0          0          0          NO
L10-11           0          0          0          NO
L18-19           0          0          0          NO
L17-18           0          0          0          NO
L16-17           0          0          0          NO
L25-26           0          0          0          NO
L24-25           0          0          0          NO
L23-24           0          0          0          NO
L22-23           0          0          0          NO
L21-22           0          0          0          NO
L20-21           0          0          0          NO
L19-20           0          0          0          NO
L34-35           0          0          0          NO
L33-34           0          0          0          NO
L32-33           0          0          0          NO
L31-32           0          0          0          NO
L30-31           0          0          0          NO
L29-30           0          0          0          NO
L28-29           0          0          0          NO
L27-28           0          0          0          NO
L15-27           0          0          0          NO
L35-36           0          0          0          NO
L39-40           0          0          0          NO
L38-39           0          0          0          NO
L37-38           0          0          0          NO
L11-37           0          0          0          NO
L4-41            0          0          0          NO
L42-43           0          0          0          NO
L41-42           0          0          0          NO
L48-49           0          0          0          NO
L47-48           0          0          0          NO
L46-47           0          0          0          NO
L45-46           0          0          0          NO
L44-45           0          0          0          NO
L43-44           0          0          0          NO
L53-54           0          0          0          NO
L52-53           0          0          0          NO
L51-52           0          0          0          NO
L50-51           0          0          0          NO
L2-50            0          0          0          NO
L55-56           0          0          0          NO
L1-55            0          0          0          NO
L56-57           0          0          0          NO
L57-58           0          0          0          NO
L65-66           0          0          0          NO
L64-65           0          0          0          NO
L63-64           0          0          0          NO
L62-63           0          0          0          NO
L61-62           0          0          0          NO
L60-61           0          0          0          NO
L59-60           0          0          0          NO
L58-59           0          0          0          NO
L1A-L1           0          0          0          NO
5x6 box          0          0          0          NO
x-sec            0          0          0          NO
x-sec            0          0          0          NO
x-sec            0          0          0          NO
x-sec            0          0          0          NO
x-sec            0          0          0          NO
x-sec            0          0          0          NO
x-sec            0          0          0          NO
x-sec            0          0          0          NO
x-sec            0          0          0          NO
x-sec            0          0          0          NO
x-sec            0          0          0          NO
x-sec            0          0          0          NO
x-sec            0          0          0          NO
x-sec            0          0          0          NO
x-sec            0          0          0          NO
x-sec            0          0          0          NO

[COORDINATES]
;;Node           X-Coord            Y-Coord
;;-------------- ------------------ ------------------
28-3-1           200.46             268.81            
28-3-2           154.19             229.69            
28-3-3           127.62             231.27            
28-3-4           84.93              243.46            
28-3-5           85.88              207.27            
28-3-6           86.35              165.98            
28-3-7           106.27             113.67            
28-3-8           129.99             89.28             
28-3-9           138.53             51.52             
28-3-10          109.60             33.04             
28-3-11          80.18              23.99             
28-3-12          104.85             -12.19            
28-3-13          104.38             -48.38            
28-3-14          103.90             -82.20            
28-3-15          102.95             -116.03           
28-3-16          102.01             -148.67           
28-3-17          101.53             -185.64           
28-3-18          103.43             -226.15           
28-3-19          125.72             -247.39           
28-3-20          113.39             -285.15           
28-3-21          136.64             -296.16           
28-3-22          157.51             -304.81           
28-3-23          181.70             -305.21           
28-3-24          210.64             -305.60           
28-3-25          236.26             -305.99           
28-3-26          236.26             -346.68           
28-3-27          126.67             -116.81           
28-3-28          161.78             -117.60           
28-3-29          198.78             -117.21           
28-3-30          229.61             -117.60           
28-3-31          251.91             -151.03           
28-3-32          250.96             -193.90           
28-3-33          275.63             -193.90           
28-3-34          304.09             -194.29           
28-3-35          330.18             -194.69           
28-3-36          355.80             -195.08           
28-3-37          56.46              14.95             
28-3-38          18.04              8.26              
28-3-39          -9.48              8.26              
28-3-40          -9.95              -37.76            
28-3-41          57.41              243.46            
28-3-42          24.21              243.85            
28-3-43          -13.75             243.85            
28-3-49          -13.75             39.72             
28-3-48          -14.22             81.42             
28-3-47          -13.75             117.21            
28-3-46          -14.22             152.60            
28-3-45          -14.22             188.40            
28-3-44          -13.75             217.89            
28-3-50          170.32             196.65            
28-3-51          181.23             160.47            
28-3-52          186.45             110.13            
28-3-53          210.17             73.94             
28-3-54          226.39             45.82             
28-3-55          218.70             240.31            
28-3-56          241.95             208.85            
28-3-57          253.81             160.08            
28-3-58          272.78             113.67            
28-3-59          294.13             81.81             
28-3-60          329.24             52.31             
28-3-61          307.89             21.24             
28-3-62          291.76             -8.26             
28-3-63          284.64             -48.77            
28-3-64          285.12             -85.35            
28-3-65          285.59             -125.07           
28-3-66          285.12             -162.04           
28-3-1A          295.58             307.58            