;; SWMM5 .inp converted from XPSWMM .xp file
;; Generated by XPSWMM Card Reader
;; Source format: XP_CARD | Original title: RUNOFF HYDRAULICS / CLIF5RU.DAT /5 MAY 1993  //

[TITLE]
;;Project Title/Notes
RUNOFF HYDRAULICS / CLIF5RU.DAT /5 MAY 1993  //

[OPTIONS]
FLOW_UNITS           CFS
INFILTRATION         HORTON
FLOW_ROUTING         DYNWAVE
LINK_OFFSETS         DEPTH
MIN_SLOPE            0.0
ALLOW_PONDING        NO
SKIP_STEADY_STATE    NO
ROUTING_STEP         00:00:02
VARIABLE_STEP        0.75
INERTIAL_DAMPING     NONE
NORMAL_FLOW_LIMITED  BOTH
MAX_TRIALS           30

[JUNCTIONS]
;;Name           Elev       MaxDepth   InitDepth  SurDepth   Aponded
;;-------------- ---------- ---------- ---------- ---------- ----------
110              100.00     0          0          0          0
1120             100.00     0          0          0          0
1110             100.00     0          0          0          0
111              100.00     0          0          0          0
130              100.00     0          0          0          0
140              100.00     0          0          0          0
150              100.00     0          0          0          0
270              100.00     0          0          0          0
260              100.00     0          0          0          0
160              100.00     0          0          0          0
170              100.00     0          0          0          0
180              100.00     0          0          0          0
333              100.00     0          0          0          0
310              100.00     0          0          0          0
320              100.00     0          0          0          0
330              100.00     0          0          0          0
340              100.00     0          0          0          0
350              100.00     0          0          0          0
230              100.00     0          0          0          0
250              100.00     0          0          0          0
240              100.00     0          0          0          0
220              100.00     0          0          0          0
210              100.00     0          0          0          0
1160             100.00     0          0          0          0
222              100.00     0          0          0          0

[STORAGE]
;;Name           Elev       MaxDepth   InitDepth  Shape      Curve/Params
;;-------------- ---------- ---------- ---------- ---------- ----------
120              100.00     -27.00     0          FUNCTIONAL 0 0          0

[CONDUITS]
;;Name           From             To               Length     Roughness  InOffset   OutOffset  InitFlow   MaxFlow
;;-------------- ---------------- ---------------- ---------- ---------- ---------- ---------- ---------- ----------
115              110              120              1000.00    0.0140     68.00      67.00      0          0
126              1120             1110             50.00      0.0140     55.50      51.00      0          0
127              1110             111              50.00      0.0140     51.00      51.00      0          0
135              130              140              165.00     0.0140     52.00      42.30      0          0
145              140              150              70.00      0.0140     42.30      38.90      0          0
235              270              260              460.00     0.0140     45.00      44.20      0          0
155              150              160              170.00     0.0140     38.90      34.00      0          0
175              160              170              50.00      0.0140     30.30      30.30      0          0
185              180              333              100.00     0.0140     38.30      38.00      0          0
315              310              160              140.00     0.0140     35.00      34.00      0          0
325              320              310              200.00     0.0140     36.90      35.00      0          0
335              330              320              150.00     0.0140     40.20      36.90      0          0
345              340              310              120.00     0.0140     44.40      35.00      0          0
355              350              340              150.00     0.0140     45.70      44.40      0          0
255              230              250              135.00     0.0140     52.20      47.60      0          0
245              240              230              150.00     0.0140     59.30      52.20      0          0
225              220              230              170.00     0.0140     52.90      52.20      0          0
215              210              220              150.00     0.0140     54.60      52.90      0          0
165              1160             222              50.00      0.0140     30.30      29.00      0          0
256              250              350              100.00     0.0140     47.60      45.70      0          0
275              250              270              140.00     0.0140     48.20      47.70      0          0

[ORIFICES]
;;Name           From             To               Type       Offset     Qcoeff     Gated    CloseTime
;;-------------- ---------------- ---------------- ---------- ---------- ---------- -------- ----------
MUL1             260              150              SIDE       0          0.650      NO       0
MUL2             120              130              SIDE       0          0.650      NO       0

[WEIRS]
;;Name           From             To               Type       CrestHt    Qcoeff     Gated    EndCon   EndCoeff   Surcharge
;;-------------- ---------------- ---------------- ---------- ---------- ---------- -------- -------- ---------- ----------
MUL3             160              1160             TRANSVERSE 34.50      1.840      NO       0        0          YES
MUL4             120              1120             TRANSVERSE 64.00      1.840      NO       0        0          YES

[PUMPS]
;;Name           From             To               PumpCurve  Status   Startup    Shutoff
;;-------------- ---------------- ---------------- ---------- -------- ---------- ----------
MUL5             170              180              *          ON       0          0         

[XSECTIONS]
;;Link           Shape        Geom1      Geom2      Geom3      Geom4      Barrels
;;-------------- ------------ ---------- ---------- ---------- ---------- ----------
115              CIRCULAR     6.00       0          0          0          1
126              CIRCULAR     5.00       0          0          0          1
127              CIRCULAR     5.00       0          0          0          1
135              CIRCULAR     2.00       0          0          0          1
145              CIRCULAR     0.67       0          0          0          1
235              CIRCULAR     3.00       0          0          0          1
155              CIRCULAR     0.67       0          0          0          1
175              CIRCULAR     1.25       0          0          0          1
185              CIRCULAR     2.00       0          0          0          1
315              CIRCULAR     1.25       0          0          0          1
325              CIRCULAR     0.67       0          0          0          1
335              CIRCULAR     0.50       0          0          0          1
345              CIRCULAR     0.67       0          0          0          1
355              CIRCULAR     0.67       0          0          0          1
255              CIRCULAR     1.00       0          0          0          1
245              CIRCULAR     0.67       0          0          0          1
225              CIRCULAR     0.67       0          0          0          1
215              CIRCULAR     0.67       0          0          0          1
165              CIRCULAR     1.00       0          0          0          1
256              CIRCULAR     0.67       0          0          0          1
275              CIRCULAR     1.50       0          0          0          1
MUL1             RECT_CLOSED  0          0          0          0          
MUL2             RECT_CLOSED  0          0          0          0          
MUL3             RECT_OPEN    0          2.00       0          0          
MUL4             RECT_OPEN    0          10.00      0          0          

[LOSSES]
;;Link           Inlet      Outlet     Average    Flap Gate
;;-------------- ---------- ---------- ---------- ----------
115              0          0          0          NO
126              0          0          0          NO
127              0          0          0          NO
135              0          0          0          NO
145              0          0          0          NO
235              0          0          0          NO
155              0          0          0          NO
175              0          0          0          NO
185              0          0          0          NO
315              0          0          0          NO
325              0          0          0          NO
335              0          0          0          NO
345              0          0          0          NO
355              0          0          0          NO
255              0          0          0          NO
245              0          0          0          NO
225              0          0          0          NO
215              0          0          0          NO
165              0          0          0          NO
256              0          0          0          NO
275              0          0          0          NO

[COORDINATES]
;;Node           X-Coord            Y-Coord
;;-------------- ------------------ ------------------
110              265.49             419.51            
120              -35.01             417.33            
1120             -104.28            416.47            
1110             -295.90            417.39            
111              -361.60            378.26            
130              -51.93             485.42            
140              -53.58             568.77            
150              -93.05             645.67            
270              -128.23            1065.27           
260              -100.05            687.64            
160              -283.32            639.25            
170              -364.35            638.23            
180              -406.20            663.58            
333              -444.25            694.12            
310              -442.11            756.80            
320              -552.41            852.19            
330              -403.47            968.52            
340              -305.29            757.30            
350              -306.78            862.66            
230              -129.52            1090.28           
250              -308.12            1014.83           
240              -138.33            1250.85           
220              -11.48             1096.53           
210              -8.87              764.04            
1160             -284.37            611.86            
222              -418.71            608.67            

[MAP]
DIMENSIONS -552.41 378.26 265.49 1250.85
Units      None

[REPORT]
INPUT            YES
SUBCATCHMENTS    ALL
NODES            ALL
LINKS            ALL



