;; SWMM5 .inp converted from XPSWMM .xp file
;; Generated by XPSWMM Card Reader
;; Source format: XP_CARD | Original title: 10yr 6hr: Existing

[TITLE]
;;Project Title/Notes
10yr 6hr: Existing

[OPTIONS]
FLOW_UNITS           CMS
INFILTRATION         HORTON
FLOW_ROUTING         DYNWAVE
LINK_OFFSETS         DEPTH
MIN_SLOPE            0.0
ALLOW_PONDING        NO
SKIP_STEADY_STATE    NO
ROUTING_STEP         00:00:300
VARIABLE_STEP        0.75
INERTIAL_DAMPING     PARTIAL
NORMAL_FLOW_LIMITED  BOTH
MAX_TRIALS           50
HEAD_TOLERANCE       .00001

[JUNCTIONS]
;;Name           Elev       MaxDepth   InitDepth  SurDepth   Aponded
;;-------------- ---------- ---------- ---------- ---------- ----------
A1               10.00      0          0.47       0          0
A2               10.00      0          0.35       0          0
A3               4.94       0          0.46       0          0
A4               25.09      0          0.61       0          0
A5               38.92      0          0.53       0          0
A6               16.69      0          0.57       0          0
A7               38.23      0          0.56       0          0
F6               9.72       0          0          0          0
F8               8.66       0          0          0          0
F9               8.64       0          0          0          0
F11              9.02       0          0          0          0
D2               8.75       0          0          0          0
D4               8.80       0          0          0          0
D5               8.95       0          0          0          0
D6               9.17       0          0          0          0
D7               9.00       0          0          0          0
D8               9.06       0          0          0          0
D9               9.18       0          0          0          0
E2               8.80       0          0          0          0
E3               9.06       0          0          0          0
E4               9.54       0          0          0          0
E5               9.53       0          0          0          0
E6               11.65      0          0          0          0
E7               13.72      0          0          0          0
E8               14.20      0          0          0          0
E9               14.73      0          0          0          0
E10              17.12      0          0          0          0
G25              9.85       0          0.21       0          0
G33              12.91      0          0          0          0
G34              11.80      0          0          0          0
G44              13.71      0          0          0          0
G45              13.73      0          0          0          0
G46              14.06      0          0          0          0
I3               10.34      0          0.48       0          0
I5               11.31      0          0.47       0          0
I6               9.91       0          0.44       0          0
I7               10.03      0          0.41       0          0
H11cLA1          12.00      0          0.14       0          0
K28              14.30      0          0          0          0
K29              15.00      0          0          0          0
B5               14.10      0          0          0          0
B6               14.80      0          0          0          0
C1               15.65      0          0          0          0
C13              28.19      0          0          0          0
A2a              10.00      0          0.68       0          0
A1a              10.00      0          0          0          0
A3c              14.98      0          0.51       0          0
A3b              12.96      0          0.52       0          0
A3a              10.87      0          0.48       0          0
F7LA2            10.21      0          0          0          0
G40LA1           12.51      0          0          0          0
G42LA5           15.30      0          0          0          0
G42LA3           14.30      0          0          0          0
G32LA4           13.00      0          0          0          0
H11bLA1          11.30      0          0          0          0
K19LA4           14.20      0          0          0          0
K19LA3           13.80      0          0          0          0
K19LA5           14.20      0          0          0          0
C3LA5            26.30      0          0          0          0
C3LA4            25.00      0          0          0          0
C3LA3            21.50      0          0          0          0
C3LA1            19.00      0          0          0          0
B4LA3            16.30      0          0          0          0
B4LA7            22.50      0          0          0          0
B4LA6            21.00      0          0          0          0
B4LA5            20.00      0          0          0          0
B4LA15           40.80      0          0          0          0
B4LA13           39.30      0          0          0          0
B4LA18           46.80      0          0          0          0
B4LA16           45.00      0          0          0          0
B1bLA3           15.50      0          0          0          0
B1bLA4           20.30      0          0          0          0
H11eLA4          11.00      0          0.08       0          0
H11eLA2          11.00      0          0.14       0          0
K13LA1           12.30      0          0          0          0
SYCBout          11.00      0          0          0          0
LSCBout          13.00      0          0          0          0
JKLKout          10.00      0          0          0          0
SACB1out         10.05      0          0          0          0
SACB2out         11.03      0          0          0          0
SDCBout          14.00      0          0          0          0
CRCBout          23.00      0          0          0          0
SSCBout          58.00      0          0          0          0
ASCBout          24.00      0          0          0          0
PRCBout          30.30      0          0          0          0
ARCBout          45.00      0          0          0          0

[STORAGE]
;;Name           Elev       MaxDepth   InitDepth  Shape      Curve/Params
;;-------------- ---------- ---------- ---------- ---------- ----------
A8               8.00       0          0.53       FUNCTIONAL 0 0          0
A9               8.10       0          0.46       FUNCTIONAL 10.00 0          0
A10              8.00       0          0.63       FUNCTIONAL 0 0          0
A11              9.00       0          0.58       FUNCTIONAL 10.00 0          0
A12              9.00       0          0.68       FUNCTIONAL 10.00 0          0
A13              11.90      0          0.56       FUNCTIONAL 10.00 0          0
A14              11.90      0          0.66       FUNCTIONAL 10.00 0          0
A19              8.09       0          0.56       FUNCTIONAL 10.00 0          0
F1               8.59       0          0          FUNCTIONAL 10.00 0          0
F2               8.64       0          0          FUNCTIONAL 10.00 0          0
F4               8.72       0          0          FUNCTIONAL 10.00 0          0
F5               8.79       0          0          FUNCTIONAL 10.00 0          0
F7               9.73       0          0          FUNCTIONAL 0 0          0
F10              8.85       0          0          FUNCTIONAL 10.00 0          0
F12              8.80       0          0          FUNCTIONAL 10.00 0          0
F3               8.72       0          0          FUNCTIONAL 10.00 0          0
D1               8.75       0          0          FUNCTIONAL 10.00 0          0
D3               8.55       0          0          FUNCTIONAL 0 0          0
E1               8.65       0          0          FUNCTIONAL 0 0          0
SYCB             11.00      0          0.24       FUNCTIONAL 0 0          0
H1               8.18       0          0.54       FUNCTIONAL 10.00 0          0
G23              9.15       0          0.44       FUNCTIONAL 10.00 0          0
G24              9.25       0          0.38       FUNCTIONAL 0 0          0
G26              10.47      0          0          FUNCTIONAL 10.00 0          0
G31              11.59      0          0          FUNCTIONAL 10.00 0          0
GX1              12.50      0          0          FUNCTIONAL 10.00 0          0
GX2              12.60      0          0          FUNCTIONAL 10.00 0          0
G32              13.30      0          0          FUNCTIONAL 0 0          0
G35              12.05      0          0          FUNCTIONAL 0 0          0
G36              12.00      0          0          FUNCTIONAL 0 0          0
G39              12.44      0          0          FUNCTIONAL 10.00 0          0
G40              12.42      0          0          FUNCTIONAL 10.00 0          0
G41              12.60      0          0          FUNCTIONAL 10.00 0          0
G42              13.17      0          0          FUNCTIONAL 10.00 0          0
G43              13.49      0          0          FUNCTIONAL 10.00 0          0
G47              14.40      0          0          FUNCTIONAL 0 0          0
G50              14.61      0          0          FUNCTIONAL 10.00 0          0
G51              14.69      0          0          FUNCTIONAL 0 0          0
G52              14.80      0          0          FUNCTIONAL 0 0          0
H2               8.24       0          0.50       FUNCTIONAL 10.00 0          0
H4               8.67       0          0.27       FUNCTIONAL 10.00 0          0
H5               8.80       0          0.48       FUNCTIONAL 10.00 0          0
H7               9.93       0          0.21       FUNCTIONAL 10.00 0          0
H8               10.00      0          0.35       FUNCTIONAL 0 0          0
H9               10.16      0          0.53       FUNCTIONAL 0 0          0
I2               10.16      0          0.51       FUNCTIONAL 0 0          0
I4               10.22      0          0.48       FUNCTIONAL 10.00 0          0
H10              10.60      0          0.14       FUNCTIONAL 10.00 0          0
H11              10.88      0          0.20       FUNCTIONAL 10.00 0          0
H11c             10.98      0          0.19       FUNCTIONAL 0 0          0
H11d             11.05      0          0.19       FUNCTIONAL 10.00 0          0
H11dLA1          11.05      0          0.14       FUNCTIONAL 0 0          0
H14              11.16      0          0.17       FUNCTIONAL 10.00 0          0
H15              10.67      0          0.15       FUNCTIONAL 0 0          0
H16              10.86      0          0.10       FUNCTIONAL 10.00 0          0
H17              10.96      0          0.17       FUNCTIONAL 10.00 0          0
H18              11.00      0          0.19       FUNCTIONAL 10.00 0          0
H19              11.73      0          0.21       FUNCTIONAL 0 0          0
H20              11.78      0          0.17       FUNCTIONAL 0 0          0
B1               11.79      0          0.16       FUNCTIONAL 0 0          0
J3               12.35      0          0          FUNCTIONAL 10.00 0          0
J4               13.00      0          0          FUNCTIONAL 0 0          0
J5               12.50      0          0          FUNCTIONAL 10.00 0          0
J6               12.56      0          0          FUNCTIONAL 10.00 0          0
J7               13.24      0          0          FUNCTIONAL 10.00 0          0
K1               11.93      0          0.02       FUNCTIONAL 0 0          0
K6               12.21      0          0          FUNCTIONAL 10.00 0          0
K7               11.76      0          0          FUNCTIONAL 0 0          0
K13              12.04      0          0          FUNCTIONAL 0 0          0
K19              12.34      0          0          FUNCTIONAL 0 0          0
K26              14.00      0          0          FUNCTIONAL 10.00 0          0
K27              14.30      0          0          FUNCTIONAL 0 0          0
B1b              11.89      0          0.06       FUNCTIONAL 0 0          0
B2               12.00      0          0.02       FUNCTIONAL 10.00 0          0
B3               12.00      0          0          FUNCTIONAL 0 0          0
B4               12.34      0          0          FUNCTIONAL 0 0          0
BX2              13.71      0          0          FUNCTIONAL 10.00 0          0
C2               17.20      0          0          FUNCTIONAL 100.00 0          0
C3               17.33      0          0          FUNCTIONAL 0 0          0
C4               17.32      0          0          FUNCTIONAL 0 0          0
C5               18.04      0          0          FUNCTIONAL 0 0          0
C6               19.90      0          0          FUNCTIONAL 0 0          0
C7               20.29      0          0          FUNCTIONAL 0 0          0
C8               22.81      0          0          FUNCTIONAL 0 0          0
C9               25.35      0          0          FUNCTIONAL 0 0          0
C10              26.11      0          0          FUNCTIONAL 0 0          0
C11              26.34      0          0          FUNCTIONAL 0 0          0
C12              27.57      0          0          FUNCTIONAL 0 0          0
SDCB             14.00      0          0          FUNCTIONAL 0 0          0
B4LA12           37.30      0          0          FUNCTIONAL 0 0          0
LSCB             13.00      0          0.13       FUNCTIONAL 0 0          0
PRCB             30.30      0          0          FUNCTIONAL 0 0          0
A8LA1            8.00       0          0          FUNCTIONAL 0 0          0
A17              8.00       0          0.59       FUNCTIONAL 10.00 0          0
HLK1             8.24       0          2.10       FUNCTIONAL 0 0          0
HLK2             8.27       0          2.00       FUNCTIONAL 0 0          0
BGCS             8.27       0          0.46       FUNCTIONAL 10.00 0          0
HLK3             8.27       0          2.00       FUNCTIONAL 0 0          0
F7LA1            10.21      0          0          FUNCTIONAL 10.00 0          0
F12LA1           10.21      0          0          FUNCTIONAL 10.00 0          0
G36a             12.08      0          0          FUNCTIONAL 0 0          0
G42LA1           13.45      0          0          FUNCTIONAL 10.00 0          0
G52LA1           15.80      0          0          FUNCTIONAL 0 0          0
G52LA2           25.30      0          0          FUNCTIONAL 10.00 0          0
G42LA2           14.90      0          0          FUNCTIONAL 10.00 0          0
G42LA6           18.30      0          0          FUNCTIONAL 0 0          0
G42LA4           14.30      0          0          FUNCTIONAL 0 0          0
G32LA2           13.61      0          0          FUNCTIONAL 0 0          0
G32LA1           13.30      0          0          FUNCTIONAL 10.00 0          0
G32LA3           13.00      0          0          FUNCTIONAL 10.00 0          0
H8a              10.05      0          0.20       FUNCTIONAL 0 0          0
SACB1            10.05      0          0.75       FUNCTIONAL 0 0          0
JKLK             10.00      0          1.34       FUNCTIONAL 0 0          0
H9a              10.98      0          0.14       FUNCTIONAL 10.00 0          0
SACB2            11.03      0          1.60       FUNCTIONAL 0 0          0
H11b             10.96      0          0.19       FUNCTIONAL 0 0          0
H11a             10.92      0          0.20       FUNCTIONAL 0 0          0
H11bLA2          11.80      0          0          FUNCTIONAL 10.00 0          0
H11cLA2          12.00      0          0.02       FUNCTIONAL 0 0          0
H11e             11.14      0          0.18       FUNCTIONAL 0 0          0
J2               12.09      0          0          FUNCTIONAL 0 0          0
J2LA1            13.00      0          0          FUNCTIONAL 0 0          0
B1a              11.85      0          0.10       FUNCTIONAL 0 0          0
B1aLA1           14.00      0          0.06       FUNCTIONAL 10.00 0          0
K19LA2           14.11      0          0          FUNCTIONAL 10.00 0          0
K19LA7           14.30      0          0          FUNCTIONAL 10.00 0          0
K19LA8           14.10      0          0          FUNCTIONAL 0 0          0
B4a              12.82      0          0          FUNCTIONAL 10.00 0          0
C3LA9            34.80      0          0          FUNCTIONAL 0 0          0
C3LA8            31.30      0          0          FUNCTIONAL 10.00 0          0
C3LA7            28.30      0          0          FUNCTIONAL 10.00 0          0
C3LA6            28.30      0          0          FUNCTIONAL 0 0          0
C3LA2            21.00      0          0          FUNCTIONAL 10.00 0          0
C13LA1           27.80      0          0          FUNCTIONAL 0 0          0
C13LA2           32.30      0          0          FUNCTIONAL 10.00 0          0
C13LA8           32.00      0          0          FUNCTIONAL 10.00 0          0
C13LA4           29.30      0          0          FUNCTIONAL 10.00 0          0
ASCB             24.00      0          0          FUNCTIONAL 0 0          0
C13LA6           25.10      0          0          FUNCTIONAL 0 0          0
C13LA5           25.30      0          0          FUNCTIONAL 10.00 0          0
C13LA16          54.30      0          0          FUNCTIONAL 0 0          0
C13LA15          47.30      0          0          FUNCTIONAL 0 0          0
C13LA13          45.10      0          0          FUNCTIONAL 10.00 0          0
C13LA12          44.30      0          0          FUNCTIONAL 0 0          0
C13LA11          38.80      0          0          FUNCTIONAL 10.00 0          0
C13LA10          33.30      0          0          FUNCTIONAL 0 0          0
ARCB             45.00      0          0          FUNCTIONAL 0 0          0
C13LA3           28.80      0          0          FUNCTIONAL 10.00 0          0
K19LA1           12.38      0          0          FUNCTIONAL 10.00 0          0
C13LA17          56.30      0          0          FUNCTIONAL 0 0          0
HLK3LA1          8.00       0          2.00       FUNCTIONAL 0 0          0
B5LA1            15.80      0          0          FUNCTIONAL 0 0          0
B4b              13.26      0          0          FUNCTIONAL 10.00 0          0
B4LA1            13.38      0          0          FUNCTIONAL 10.00 0          0
B4LA2            14.50      0          0          FUNCTIONAL 0 0          0
B4LA4            17.30      0          0          FUNCTIONAL 10.00 0          0
B4LA8            23.30      0          0          FUNCTIONAL 0 0          0
B4LA9            22.80      0          0          FUNCTIONAL 0 0          0
CRCB             23.00      0          0          FUNCTIONAL 0 0          0
B4LA11           25.30      0          0          FUNCTIONAL 0 0          0
B4LA14           40.30      0          0          FUNCTIONAL 0 0          0
B4LA17           45.30      0          0          FUNCTIONAL 0 0          0
SSCB             58.00      0          0          FUNCTIONAL 0 0          0
B4LA19           53.30      0          0          FUNCTIONAL 10.00 0          0
B1bLA2           15.20      0          0          FUNCTIONAL 10.00 0          0
B1bLA1           12.00      0          0          FUNCTIONAL 10.00 0          0
B1bLA5           20.30      0          0          FUNCTIONAL 10.00 0          0
B1bLA6           26.30      0          0          FUNCTIONAL 10.00 0          0
B1bLA7           20.80      0          0          FUNCTIONAL 10.00 0          0
H11eLA6          11.00      0          0          FUNCTIONAL 0 0          0
H11eLA5          11.00      0          0.05       FUNCTIONAL 10.00 0          0
H11eLA3          11.00      0          0.12       FUNCTIONAL 10.00 0          0
H11eLA1          11.16      0          0.16       FUNCTIONAL 10.00 0          0
K13LA2           13.30      0          0          FUNCTIONAL 10.00 0          0

[CONDUITS]
;;Name           From             To               Length     Roughness  InOffset   OutOffset  InitFlow   MaxFlow
;;-------------- ---------------- ---------------- ---------- ---------- ---------- ---------- ---------- ----------
HM17_1           A14              A13              54.86      0.0120     5.98       5.95       0          0
HM16_1           A13              A12              379.00     0.0250     5.95       5.81       0          0
HM14_1           A11              A10              127.76     0.0250     5.80       5.75       0          0
HM13_1           A10              A9               12.20      0.0120     5.75       5.74       0          0
HM12_1           A9               A8               270.00     0.0250     5.74       5.64       0          0
HP5_1            F12              F3               119.00     0.0250     7.26       7.18       0          0
HP13_1           F11              F10              21.00      0.0120     7.88       7.70       0          0
HP12_1           F10              F9               45.00      0.0120     7.70       7.62       0          0
HP11_1           HP11_2           F8               55.10      0.1000     0          0          0          0
HP10_1           F8               F3               51.20      0.0120     7.60       7.51       0          0
HP9_1            F7               F6               114.00     0.0120     8.12       7.87       0          0
HP8_1            F6               F5               54.00      0.0120     7.87       7.75       0          0
HP7_1            F5               F4               55.50      0.0250     7.75       7.72       0          0
HP6_1            F4               F3               3.50       0.0120     7.72       7.70       0          0
HP4_1            F3               F2               117.50     0.0250     7.18       7.10       0          0
HP3_1            HP3L_1           HP3L_3           19.40      0.1000     0          0          0          0
HP2_1            F1               HLK3             200.00     0.0250     7.05       6.73       0          0
FL10_1           FL10_2           D8               45.50      0.1000     0          0          0          0
FL9_1            FL9_2            D7               45.50      0.1000     0          0          0          0
FL8_1            FL8_2            D6               45.50      0.1000     0          0          0          0
FL7_1            FL7_2            D5               45.50      0.1000     0          0          0          0
FL6_1            FL6_2            D4               82.90      0.1000     0          0          0          0
FL5_1            FL5_2            D3               82.90      0.1000     0          0          0          0
FL4_1            D3               D2               89.00      0.0120     6.94       6.85       0          0
FL3_1            D2               D1               20.00      0.0120     6.75       6.73       0          0
SY10_1           E10              E9               61.00      0.0120     15.00      13.60      0          0
SY9_1            E9               E8               14.00      0.0120     13.60      13.10      0          0
SY8_1            E8               E7               11.00      0.0120     12.40      12.20      0          0
SY7_1            E7               E6               69.00      0.0120     12.20      10.20      0          0
SY6_1            E6               E5               70.00      0.0120     10.20      8.20       0          0
SY5_1            E5               E4               11.00      0.0120     7.24       7.23       0          0
SY4_1            SY4_2            E3               9.50       0.1000     0          0          0          0
SY3_1            SY3_2            E2               9.50       0.1000     0          0          0          0
SY2_1            SY2_2            E1               9.50       0.1000     0          0          0          0
SY1_1            E1               D2               18.00      0.0120     6.82       6.75       0          0
HM21_1           H1               A19              429.50     0.0250     6.25       6.16       0          0
BG4_1            G24              G23              49.40      0.0120     6.42       6.36       0          0
BG2_1            BGCS             H1               970.00     0.0250     6.34       6.25       0          0
BG6_1            G26              G25              148.10     0.0120     6.83       6.60       0          0
BG5_1            G25              G24              129.10     0.0120     6.59       6.46       0          0
BG13_1           G31              GX2              42.00      0.0250     9.40       9.35       0          0
BG12_1           GX2              GX1              61.00      0.0120     9.35       9.27       0          0
BG14_1           G32              G31              107.90     0.0120     9.76       9.40       0          0
BG15_1           G33              G32              39.30      0.0120     9.80       9.76       0          0
BG18_1           G36              G35              166.10     0.0120     9.85       9.87       0          0
BG17_1           G35              G34              106.30     0.0120     9.87       9.50       0          0
BG16_1           G34              G33              63.90      0.0120     9.50       9.80       0          0
BG23_1           G42              G41              100.90     0.0120     10.60      10.44      0          0
BG22_1           G41              G40              5.00       0.0250     10.44      10.27      0          0
BG21_1           G40              G39              7.60       0.0120     10.27      10.31      0          0
BG24_1           G43              G42              171.30     0.0250     10.92      10.60      0          0
BG25_1           G44              G43              115.70     0.0120     11.10      10.92      0          0
BG28_1           G47              G46              40.90      0.0120     11.64      11.38      0          0
BG27_1           G46              G45              39.90      0.0120     11.38      11.20      0          0
BG26_1           G45              G44              42.80      0.0120     11.20      11.11      0          0
BG30_1           BG30_2           G50              116.30     0.1000     0          0          0          0
BG31_1           BG31_2           G51              116.30     0.1000     0          0          0          0
OS1_1            H2               H1               253.23     0.0250     6.31       6.25       0          0
OS3_1            OS3_2            H4               19.70      0.1000     0          0          0          0
OS5_1            H8               H7               38.27      0.0120     7.24       7.15       0          0
OS4_1            H7               H5               47.00      0.0250     7.15       6.87       0          0
JK5_1            I5               I4               35.36      0.0120     7.68       7.64       0          0
JK4_1            I4               I3               42.98      0.0120     7.64       7.60       0          0
JK3_1            I3               I2               91.13      0.0120     7.60       7.52       0          0
JK2_1            I2               H9               36.58      0.0120     7.52       7.47       0          0
JK6_1            I6               I5               91.13      0.0120     7.76       7.68       0          0
JK8_1            JKLK             I7               114.30     0.0120     7.95       7.85       0          0
JK7_1            I7               I6               91.13      0.0120     7.85       7.76       0          0
OS11_1           H11              H10              49.90      0.0120     8.22       8.07       0          0
H11cL1_1         H11cLA1          H11c             68.91      0.0250     8.37       8.32       0          0
H11dL1_1         H11dLA1          H11d             27.20      0.0120     8.44       8.39       0          0
OS15_1           H11d             H11c             273.00     0.0250     8.39       8.32       0          0
OS18_1           H15              H14              142.61     0.0120     8.65       8.50       0          0
OS16_1           H11e             H11d             300.00     0.0250     8.48       8.39       0          0
OS20_1           H17              H16              97.70      0.0120     9.00       8.84       0          0
OS19_1           H16              H15              350.00     0.0250     8.84       8.65       0          0
OS24_1           H20              H19              48.00      0.0140     9.42       9.37       0          0
OS22_1           H19              H18              41.90      0.0120     9.37       9.36       0          0
AS1_1            B1               H20              87.00      0.0250     9.43       9.42       0          0
HT5_1            J4               J3               106.00     0.0120     10.35      9.99       0          0
HT6_1            J7               J4               231.00     0.0250     11.14      10.90      0          0
HT4_1            J6               J5               62.00      0.0250     10.20      10.14      0          0
HT3_1            J5               J3               150.00     0.0250     10.14      9.99       0          0
JN3_1            K7               K6               53.00      0.0120     10.03      9.85       0          0
JN8_1            K28              K27              66.60      0.0120     12.28      11.79      0          0
JN7_1            K27              K26              81.30      0.0120     11.79      11.80      0          0
JN9_1            K29              K28              65.00      0.0120     12.37      12.33      0          0
AS5_1            B3               B2               48.50      0.0120     9.59       9.57       0          0
AS4_1            B2               B1b              222.00     0.0250     9.57       9.53       0          0
AS6_1            B4               B3               551.00     0.0250     9.92       9.59       0          0
AS7_1            B4a              B4               200.00     0.0250     10.41      9.92       0          0