;; SWMM5 .inp converted from XPSWMM .xp file
;; Generated by XPSWMM Card Reader
;; Source format: XP_CARD | Original title: 120

[TITLE]
;;Project Title/Notes
120

[OPTIONS]
FLOW_UNITS           CFS
INFILTRATION         HORTON
FLOW_ROUTING         DYNWAVE
LINK_OFFSETS         DEPTH
MIN_SLOPE            0.0
ALLOW_PONDING        NO
SKIP_STEADY_STATE    NO
ROUTING_STEP         00:00:60
VARIABLE_STEP        0.75
INERTIAL_DAMPING     PARTIAL
NORMAL_FLOW_LIMITED  BOTH
MAX_TRIALS           1

[JUNCTIONS]
;;Name           Elev       MaxDepth   InitDepth  SurDepth   Aponded
;;-------------- ---------- ---------- ---------- ---------- ----------
2040             215.98     0          0          0          0
2030             215.96     0          0          0          0
2020             214.56     0          0          0          0
2025             214.50     0          0          0          0
1030             213.72     0          0          0          0
1020             211.91     0          0          0          0
1010             225.00     0          0          0          0
3050             213.28     0          0          0          0
3040             213.35     0          0          0          0
3030             212.23     0          0          0          0
3020             211.78     0          0          0          0
3010             211.91     0          0          0          0
1050             211.78     0          0          0          0
1040             213.80     0          0          0          0
1140             226.64     0          0          0          0
1130             221.00     0          0          0          0
1120             226.56     0          0          0          0
1110             225.86     0          0          0          0
1100             223.62     0          0          0          0
1090             227.09     0          0          0          0
5010             221.81     0          0          0          0
1080             225.76     0          0          0          0
1070             226.15     0          0          0          0
1060             213.04     0          0          0          0
4010             223.68     0          0          0          0
4020             226.32     0          0          0          0
6010             226.11     0          0          0          0
1063             217.00     0          0          0          0
1067             217.00     0          0          0          0

[STORAGE]
;;Name           Elev       MaxDepth   InitDepth  Shape      Curve/Params
;;-------------- ---------- ---------- ---------- ---------- ----------
2010             214.08     0          0          FUNCTIONAL 144.00 0          0
Pumpout          214.08     0          0          FUNCTIONAL 144.00 0          0

[CONDUITS]
;;Name           From             To               Length     Roughness  InOffset   OutOffset  InitFlow   MaxFlow
;;-------------- ---------------- ---------------- ---------- ---------- ---------- ---------- ---------- ----------
2040c            2040             2030             1000.00    0.0140     206.26     205.06     0          0
2030c            2030             2020             270.00     0.0140     205.06     204.79     0          0
2025c            2025             2020             300.00     0.0140     206.29     204.79     0          0
2020c            2020             2010             300.00     0.0140     204.29     204.05     0          0
2010c            Pumpout          1030             1350.00    0.0140     204.05     202.83     0          0
1030c            1030             1020             430.00     0.0140     200.33     200.12     0          0
1020c            1020             1010             230.00     0.0140     200.12     200.00     0          0
3050c            3050             3040             450.00     0.0140     203.63     203.63     0          0
3040c            3040             3030             360.00     0.0140     203.63     203.18     0          0
3030c            3030             3020             320.00     0.0140     203.18     203.25     0          0
3020c            3020             3010             250.00     0.0140     202.75     201.96     0          0
3010c            3010             1050             300.00     0.0140     201.96     202.74     0          0
1050c            1050             1040             380.00     0.0140     201.74     201.55     0          0
1040c            1040             1030             430.00     0.0140     201.55     201.33     0          0
1140c            1140             1130             340.00     0.0140     216.47     216.06     0          0
1130c            1130             1120             450.00     0.0140     216.06     215.61     0          0
1120c            1120             1110             180.00     0.0140     214.61     214.49     0          0
1110c            1110             1100             220.00     0.0140     214.49     214.35     0          0
1100c            1100             1090             270.00     0.0140     214.35     214.19     0          0
5010c            5010             1090             170.00     0.0140     216.69     215.19     0          0
1090c            1090             1080             260.00     0.0140     213.69     213.54     0          0
1080c            1080             1070             240.00     0.0140     213.54     213.39     0          0
1070c            1069c            1067             300.00     0.0140     213.39     195.34     0          0
1060c            1060             1050             180.00     0.0140     202.34     202.24     0          0
4009c            1080             4010             200.00     0.0140     217.54     216.10     0          0
4010c            4010             4020             230.00     0.0140     216.10     214.20     0          0
6010c            6010             1120             270.00     0.0140     216.11     215.61     0          0
1062c            1063c            1060             80.00      0.0140     195.34     202.34     0          0
1067c            1066c            1063             110.00     0.0140     195.34     195.34     0          0

[PUMPS]
;;Name           From             To               PumpCurve  Status   Startup    Shutoff
;;-------------- ---------------- ---------------- ---------- -------- ---------- ----------
PUMP             2010             Pumpout          PC_PUMP    ON       205.55     204.55    

[CURVES]
;;Name           Type       X-Value    Y-Value
;;-------------- ---------- ---------- ----------
PC_PUMP          Pump3      0          0
;

[XSECTIONS]
;;Link           Shape        Geom1      Geom2      Geom3      Geom4      Barrels
;;-------------- ------------ ---------- ---------- ---------- ---------- ----------
2040c            CIRCULAR     2.00       0          0          0          1
2030c            CIRCULAR     2.00       0          0          0          1
2025c            CIRCULAR     1.50       0          0          0          1
2020c            CIRCULAR     2.50       0          0          0          1
2010c            CIRCULAR     2.50       0          0          0          1
1030c            CIRCULAR     5.00       0          0          0          1
1020c            CIRCULAR     5.00       0          0          0          1
3050c            CIRCULAR     2.50       0          0          0          1
3040c            CIRCULAR     2.50       0          0          0          1
3030c            CIRCULAR     2.50       0          0          0          1
3020c            CIRCULAR     3.00       0          0          0          1
3010c            CIRCULAR     3.00       0          0          0          1
1050c            CIRCULAR     4.00       0          0          0          1
1040c            CIRCULAR     4.00       0          0          0          1
1140c            CIRCULAR     2.00       0          0          0          1
1130c            CIRCULAR     2.00       0          0          0          1
1120c            CIRCULAR     3.00       0          0          0          1
1110c            CIRCULAR     3.00       0          0          0          1
1100c            CIRCULAR     3.00       0          0          0          1
5010c            CIRCULAR     2.00       0          0          0          1
1090c            CIRCULAR     3.50       0          0          0          1
1080c            CIRCULAR     3.50       0          0          0          1
1070c            CIRCULAR     2.00       0          0          0          1
1060c            CIRCULAR     3.50       0          0          0          1
4009c            CIRCULAR     2.00       0          0          0          1
4010c            CIRCULAR     2.00       0          0          0          1
6010c            CIRCULAR     2.00       0          0          0          1
1062c            CIRCULAR     2.00       0          0          0          1
1067c            CIRCULAR     2.00       0          0          0          1

[LOSSES]
;;Link           Inlet      Outlet     Average    Flap Gate
;;-------------- ---------- ---------- ---------- ----------
2040c            0          0          0          NO
2030c            0          0          0          NO
2025c            0          0          0          NO
2020c            0          0          0          NO
2010c            0          0          0          NO
1030c            0          0          0          NO
1020c            0          0          0          NO
3050c            0          0          0          NO
3040c            0          0          0          NO
3030c            0          0          0          NO
3020c            0          0          0          NO
3010c            0          0          0          NO
1050c            0          0          0          NO
1040c            0          0          0          NO
1140c            0          0          0          NO
1130c            0          0          0          NO
1120c            0          0          0          NO
1110c            0          0          0          NO
1100c            0          0          0          NO
5010c            0          0          0          NO
1090c            0          0          0          NO
1080c            0          0          0          NO
1070c            0          0          0          NO
1060c            0          0          0          NO
4009c            0          0          0          NO
4010c            0          0          0          NO
6010c            0          0          0          NO
1062c            0          0          0          NO
1067c            0          0          0          NO

[INFLOWS]
;;Node           Constituent  Time Series      Type     Mfactor  Sfactor  Baseline Pattern
;;-------------- ------------ ---------------- -------- -------- -------- -------- --------
2040             FLOW         ""               FLOW     1.0      1.0      1.50

[COORDINATES]
;;Node           X-Coord            Y-Coord
;;-------------- ------------------ ------------------
2040             -188.43            2617.99           
2030             -193.35            1618.00           
2020             -196.44            1348.02           
2025             81.42              1461.13           
2010             -199.87            1048.04           
Pumpout          -231.06            1048.09           
1030             -1548.69           1104.48           
1020             -1856.61           804.33            
1010             -2083.63           812.31            
3050             -374.80            2463.24           
3040             -372.94            2013.25           
3030             -732.82            2022.80           
3020             -1038.09           2118.75           
3010             -1270.60           2026.87           
1050             -1548.72           1914.42           
1040             -1553.32           1534.45           
1140             -429.38            3423.01           
1130             -423.77            3083.06           
1120             -873.77            3083.20           
1110             -1053.68           3077.35           
1100             -1273.68           3078.07           
1090             -1543.61           3084.06           
5010             -1543.99           3254.06           
1080             -1550.67           2824.16           
1070             -1559.38           2584.32           
1060             -1554.81           2094.32           
4010             -1738.87           2756.48           
4020             -1951.57           2668.96           
6010             -876.30            3353.18           
1063             -1555.00           2205.00           
1067             -1555.00           2285.00           

[MAP]
DIMENSIONS -2083.63 804.33 81.42 3423.01
Units      None

[REPORT]
INPUT            YES
SUBCATCHMENTS    ALL
NODES            ALL
LINKS            ALL



