;; SWMM5 .inp converted from XPSWMM .xp file
;; Generated by XPSWMM Card Reader
;; Source format: XP_CARD | Original title: Haller-Bitter to Green Lake - Drainage analysis - existing conditions

[TITLE]
;;Project Title/Notes
Haller-Bitter to Green Lake - Drainage analysis - existing conditions

[OPTIONS]
FLOW_UNITS           CFS
INFILTRATION         HORTON
FLOW_ROUTING         DYNWAVE
LINK_OFFSETS         DEPTH
MIN_SLOPE            0.0
ALLOW_PONDING        NO
SKIP_STEADY_STATE    NO
ROUTING_STEP         00:00:05
VARIABLE_STEP        0.75
INERTIAL_DAMPING     NONE
NORMAL_FLOW_LIMITED  BOTH
MAX_TRIALS           50

[JUNCTIONS]
;;Name           Elev       MaxDepth   InitDepth  SurDepth   Aponded
;;-------------- ---------- ---------- ---------- ---------- ----------
91               265.00     0          0          0          0
85               260.00     0          0          0          0
77               252.00     0          0          0          0
65               249.00     0          0          0          0
75               254.00     0          0          0          0
55               229.00     0          0          0          0
35               210.00     0          0          0          0
45               245.00     0          0          0          0
25               200.00     0          0          0          0
15               169.00     0          0          0          0
6                160.00     0          0          0          0
5                155.20     0          0          0          0
118              0          0          0          0          0
109              0          0          0          0          0
115              0          0          0          0          0
107              0          0          0          0          0
105              0          0          0          0          0
121              0          0          0          0          0
95               0          0          0          0          0
97               0          0          0          0          0
99               0          0          0          0          0
101              0          0          0          0          0
123              0          0          0          0          0
111              0          0          0          0          0
103              0          0          0          0          0
113              0          0          0          0          0
151              0          0          0          0          0
155              0          0          0          0          0
165              0          0          0          0          0
175              0          0          0          0          0
185              0          0          0          0          0
195              0          0          0          0          0

[CONDUITS]
;;Name           From             To               Length     Roughness  InOffset   OutOffset  InitFlow   MaxFlow
;;-------------- ---------------- ---------------- ---------- ---------- ---------- ---------- ---------- ----------
90               91               85               480.00     0.0130     252.30     247.60     0          0
80               85               77               450.00     0.0130     247.60     244.80     0          0
76               77               65               400.00     0.0130     244.80     236.30     0          0
70               75               65               660.00     0.0130     245.50     236.30     0          0
60               65               55               680.00     0.0130     236.30     219.40     0          0
50               55               35               620.00     0.0130     219.40     198.80     0          0
40               45               35               1300.00    0.0130     234.30     198.80     0          0
30               35               25               370.00     0.0130     198.80     192.00     0          0
20               25               15               1510.00    0.0130     192.00     160.90     0          0
11               15               6                230.00     0.0130     160.90     153.70     0          0
10               6                5                270.00     0.0130     153.70     147.50     0          0
124              109              118              390.00     0.0250     4.02       0          0          0
119              115              109              350.00     0.0250     14.00      0          0          0
116              107              109              120.00     0.0300     2.00       0          0          0
108              105              107              120.00     0.0130     7.00       0          0          0
106              121              105              350.00     0.0130     5.95       0          0          0
94               95               91               230.00     0.0130     2.30       0          0          0
96               97               95               570.00     0.0130     6.84       0          0          0
98               99               97               380.00     0.0130     13.30      0          0          0
100              101              99               440.00     0.0130     10.21      0          0          0
102              123              101              132.00     0.0130     5.27       0          0          0
110              111              107              370.00     0.0200     9.25       0          0          0
112              103              111              400.00     0.0130     10.00      0          0          0
114              113              103              230.00     0.0130     6.90       0          0          0
150              151              113              650.00     0.0130     7.80       0          0          0
152              155              151              650.00     0.0130     7.80       0          0          0
160              165              155              1370.00    0.0130     16.44      0          0          0
170              175              165              600.00     0.0130     10.02      0          0          0
180              185              175              1200.00    0.0130     11.04      0          0          0
190              195              185              450.00     0.0130     7.02       0          0          0

[XSECTIONS]
;;Link           Shape        Geom1      Geom2      Geom3      Geom4      Barrels
;;-------------- ------------ ---------- ---------- ---------- ---------- ----------
90               CIRCULAR     2.50       0          0          0          1
80               CIRCULAR     4.00       0          0          0          1
76               CIRCULAR     3.00       0          0          0          1
70               CIRCULAR     3.00       0          0          0          1
60               CIRCULAR     3.00       0          0          0          1
50               CIRCULAR     3.00       0          0          0          1
40               CIRCULAR     2.50       0          0          0          1
30               CIRCULAR     3.50       0          0          0          1
20               CIRCULAR     3.50       0          0          0          1
11               CIRCULAR     4.00       0          0          0          1
10               CIRCULAR     4.00       0          0          0          1
124              TRAPEZOIDAL  2.00       3.00       0          0          1
119              TRAPEZOIDAL  1.00       2.00       0          0          1
116              TRAPEZOIDAL  2.00       5.00       0          0          1
108              CIRCULAR     1.50       0          0          0          1
106              CIRCULAR     1.50       0          0          0          1
94               CIRCULAR     2.50       0          0          0          1
96               CIRCULAR     2.00       0          0          0          1
98               CIRCULAR     1.25       0          0          0          1
100              CIRCULAR     1.00       0          0          0          1
102              CIRCULAR     0.83       0          0          0          1
110              CIRCULAR     2.50       0          0          0          1
112              CIRCULAR     2.50       0          0          0          1
114              CIRCULAR     2.50       0          0          0          1
150              CIRCULAR     2.50       0          0          0          1
152              CIRCULAR     2.50       0          0          0          1
160              CIRCULAR     2.50       0          0          0          1
170              CIRCULAR     4.00       0          0          0          1
180              CIRCULAR     4.00       0          0          0          1
190              CIRCULAR     3.50       0          0          0          1

[LOSSES]
;;Link           Inlet      Outlet     Average    Flap Gate
;;-------------- ---------- ---------- ---------- ----------
90               0          0          0          NO
80               0          0          0          NO
76               0          0          0          NO
70               0          0          0          NO
60               0          0          0          NO
50               0          0          0          NO
40               0          0          0          NO
30               0          0          0          NO
20               0          0          0          NO
11               0          0          0          NO
10               0          0          0          NO
124              0          0          0          NO
119              0          0          0          NO
116              0          0          0          NO
108              0          0          0          NO
106              0          0          0          NO
94               0          0          0          NO
96               0          0          0          NO
98               0          0          0          NO
100              0          0          0          NO
102              0          0          0          NO
110              0          0          0          NO
112              0          0          0          NO
114              0          0          0          NO
150              0          0          0          NO
152              0          0          0          NO
160              0          0          0          NO
170              0          0          0          NO
180              0          0          0          NO
190              0          0          0          NO

[COORDINATES]
;;Node           X-Coord            Y-Coord
;;-------------- ------------------ ------------------
91               471.71             12.99             
85               491.71             12.99             
77               511.71             12.99             
65               531.71             12.99             
75               531.71             32.99             
55               551.71             12.99             
35               571.71             12.99             
45               571.71             -7.01             
25               591.71             12.99             
15               611.71             12.99             
6                631.71             12.99             
5                651.71             12.99             
118              336.52             -22.09            
109              375.92             -19.27            
115              375.72             3.17              
107              401.27             -6.96             
105              413.65             -3.34             
121              431.18             -2.13             
95               451.71             12.99             
97               431.71             12.99             
99               411.71             12.99             
101              391.71             12.99             
123              371.71             12.99             
111              395.30             24.54             
103              420.24             20.19             
113              431.69             43.41             
151              457.87             50.54             
155              446.25             75.74             
165              444.80             133.68            
175              443.90             206.34            
185              438.80             271.96            
195              436.22             319.99            

[MAP]
DIMENSIONS 336.52 -22.09 651.71 319.99
Units      None

[REPORT]
INPUT            YES
SUBCATCHMENTS    ALL
NODES            ALL
LINKS            ALL



