;; SWMM5 .inp converted from XPSWMM .xp file
;; Generated by XPSWMM Card Reader
;; Source format: XP_CARD | Original title: City of White Rock - Evaluation of existing conditions

[TITLE]
;;Project Title/Notes
City of White Rock - Evaluation of existing conditions

[OPTIONS]
FLOW_UNITS           CMS
INFILTRATION         HORTON
FLOW_ROUTING         DYNWAVE
LINK_OFFSETS         DEPTH
MIN_SLOPE            0.0
ALLOW_PONDING        NO
SKIP_STEADY_STATE    NO
ROUTING_STEP         00:00:30
VARIABLE_STEP        0.75
INERTIAL_DAMPING     PARTIAL
NORMAL_FLOW_LIMITED  BOTH
MAX_TRIALS           100
HEAD_TOLERANCE       .0001

[JUNCTIONS]
;;Name           Elev       MaxDepth   InitDepth  SurDepth   Aponded
;;-------------- ---------- ---------- ---------- ---------- ----------
32               87.02      0          0          0          0
34               86.36      0          0          0          0
36               85.33      0          0          0          0
39               80.95      0          0          0          0
40               80.81      0          0          0          0
41               79.78      0          0          0          0
42               78.74      0          0          0          0
49               78.46      0          0          0          0
50               78.79      0          0          0          0
63               83.18      0          0          0          0
65               80.90      0          0          0          0
67               77.67      0          0          0          0
70               73.89      0          0          0          0
72               74.71      0          0          0          0
75               74.72      0          0          0          0
92               71.48      0          0          0          0
93               73.36      0          0          0          0
97               73.40      0          0          0          0
106              79.65      0          0          0          0
107              82.22      0          0          0          0
109              81.41      0          0          0          0
114              69.54      0          0          0          0
117              69.22      0          0          0          0
122              70.44      0          0          0          0
125              71.31      0          0          0          0
128              71.58      0          0          0          0
167              68.87      0          0          0          0
175              64.92      0          0          0          0
184              78.71      0          0          0          0
187              76.29      0          0          0          0
2993             65.24      0          0          0          0
3083             76.64      0          0          0          0
3087             78.75      0          0          0          0
3088             79.01      0          0          0          0
3400             72.27      0          0          0          0
3401             73.89      0          0          0          0
3402             76.98      0          0          0          0
3414             72.29      0          0          0          0
3422             71.95      0          0          0          0
3804             78.96      0          0          0          0
3822             80.71      0          0          0          0
4002             78.49      0          0          0          0
4013             72.69      0          0          0          0
4037             73.80      0          0          0          0
4286             80.12      0          0          0          0
4321             82.00      0          0          0          0
4322             80.28      0          0          0          0
4502             73.50      0          0          0          0
3877             75.92      0          0          0          0
10014            77.80      0          0          0          0
10049            78.70      0          0          0          0
10063            81.68      0          0          0          0
N2               72.00      0          0          0          0
Stilling         9.00       0          0          0          0

[CONDUITS]
;;Name           From             To               Length     Roughness  InOffset   OutOffset  InitFlow   MaxFlow
;;-------------- ---------------- ---------------- ---------- ---------- ---------- ---------- ---------- ----------
6770             32               34               98.60      0.0130     86.09      85.22      0          0
6777             34               36               92.60      0.0130     85.19      83.72      0          0
6778             36               63               92.30      0.0130     83.67      82.35      0          0
6779             107              109              93.90      0.0130     81.41      80.31      0          0
6780             63               107              91.50      0.0130     82.33      81.42      0          0
6802             Node_6802        Node_11891190    70.50      0.0130     81.05      79.71      0          0
6811             65               4286             27.00      0.0130     80.24      79.66      0          0
6817             39               40               12.00      0.0130     80.29      80.17      0          0
6824             40               41               43.50      0.0130     79.98      78.85      0          0
6830             Node_6830        Node_1075269     85.60      0.0130     77.48      76.77      0          0
6843             41               42               45.00      0.0130     78.74      77.67      0          0
6845             42               50               12.70      0.0130     77.64      77.50      0          0
6860             49               3083             38.50      0.0130     77.71      76.12      0          0
6861             Node_6861        Node_1090959     118.50     0.0130     77.75      76.15      0          0
6862             3087             4002             60.40      0.0130     78.00      77.76      0          0
6863             3088             3087             37.30      0.0110     78.30      78.01      0          0
6873             Node_6873        Node_1100247     14.40      0.0130     72.40      72.16      0          0
6874             187              97               54.00      0.0130     74.06      71.92      0          0
6875             Node_6875        Node_1225247     42.20      0.0130     72.27      72.00      0          0
6883             3402             3401             67.00      0.0130     75.73      72.57      0          0
6884             3083             75               44.00      0.0130     76.07      73.85      0          0
6885             72               70               88.90      0.0130     73.84      72.89      0          0
6886             50               72               95.50      0.0130     77.20      74.00      0          0
6887             75               72               14.70      0.0130     73.83      73.85      0          0
6891             Node_6891        Node_1384241     101.90     0.0130     74.69      73.82      0          0
6906             3401             3400             50.00      0.0130     72.50      71.52      0          0
6907             67               3400             132.50     0.0130     76.98      71.48      0          0
6914             Node_6914        Node_1095245     168.70     0.0130     72.14      70.62      0          0
6928             92               114              55.00      0.0130     69.60      67.30      0          0
6929             122              114              98.70      0.0130     68.60      68.09      0          0
6930             117              167              26.70      0.0130     66.82      66.23      0          0
6931             114              117              19.80      0.0130     67.27      66.89      0          0
6932             125              122              110.40     0.0130     69.41      68.64      0          0
6933             128              125              68.60      0.0130     70.08      69.44      0          0
7004             184              187              60.50      0.0130     75.78      74.51      0          0
7042             70               93               12.50      0.0130     72.72      72.34      0          0
7043             93               3414             40.50      0.0130     72.31      71.43      0          0
7045             97               3422             58.60      0.0130     71.90      70.74      0          0
7046             3422             92               13.00      0.0130     70.63      69.66      0          0
7053             109              106              101.00     0.0130     78.80      77.29      0          0
7055             106              184              56.00      0.0130     77.26      75.82      0          0
7073             167              2993             89.30      0.0130     66.23      62.25      0          0
7074             2993             175              9.60       0.0130     62.25      61.87      0          0
7003             Node_7003        Node_11761482    76.00      0.0130     79.62      78.00      0          0
7214             Node_7214        Node_1447238     12.00      0.0130     77.10      77.00      0          0
7020             Node_7020        Node_1190993     133.00     0.0130     79.71      76.32      0          0
7292             Node_7292        Node_1077248     92.70      0.0130     79.02      77.63      0          0
P1               3414             N2               10.00      0.0130     71.39      71.13      0          0
P2               ?                Node_2724999     101.00     0.0130     71.13      70.94      0          0
P3               3400             N2               5.00       0.0130     71.13      71.13      0          0
P7               175              Stilling         188.00     0.0110     61.70      7.50       0          0
P14              ?                Node_1496250     11.20      0.0130     78.95      78.85      0          0
D2               ?                Node_14821447    18.00      0.0200     78.00      77.10      0          0

[XSECTIONS]
;;Link           Shape        Geom1      Geom2      Geom3      Geom4      Barrels
;;-------------- ------------ ---------- ---------- ---------- ---------- ----------
6770             CIRCULAR     0.25       0          0          0          1
6777             CIRCULAR     0.25       0          0          0          1
6778             CIRCULAR     0.25       0          0          0          1
6779             CIRCULAR     0.38       0          0          0          1
6780             CIRCULAR     0.30       0          0          0          1
6802             CIRCULAR     0.20       0          0          0          1
6811             CIRCULAR     0.25       0          0          0          1
6817             CIRCULAR     0.45       0          0          0          1
6824             CIRCULAR     0.38       0          0          0          1
6830             CIRCULAR     0.30       0          0          0          1
6843             CIRCULAR     0.45       0          0          0          1
6845             CIRCULAR     0.53       0          0          0          1
6860             CIRCULAR     0.25       0          0          0          1
6861             CIRCULAR     0.20       0          0          0          1
6862             CIRCULAR     0.30       0          0          0          1
6863             CIRCULAR     0.20       0          0          0          1
6873             CIRCULAR     0.75       0          0          0          1
6874             CIRCULAR     1.05       0          0          0          1
6875             CIRCULAR     0.90       0          0          0          1
6883             CIRCULAR     0.25       0          0          0          1
6884             CIRCULAR     0.57       0          0          0          1
6885             CIRCULAR     0.60       0          0          0          1
6886             CIRCULAR     0.45       0          0          0          1
6887             CIRCULAR     0.60       0          0          0          1
6891             CIRCULAR     0.75       0          0          0          1
6906             CIRCULAR     0.53       0          0          0          1
6907             CIRCULAR     0.60       0          0          0          1
6914             CIRCULAR     0.30       0          0          0          1
6928             CIRCULAR     1.20       0          0          0          1
6929             CIRCULAR     0.38       0          0          0          1
6930             CIRCULAR     1.35       0          0          0          1
6931             CIRCULAR     1.35       0          0          0          1
6932             CIRCULAR     0.38       0          0          0          1
6933             CIRCULAR     0.38       0          0          0          1
7004             CIRCULAR     1.05       0          0          0          1
7042             CIRCULAR     0.60       0          0          0          1
7043             CIRCULAR     0.75       0          0          0          1
7045             CIRCULAR     1.05       0          0          0          1
7046             CIRCULAR     1.20       0          0          0          1
7053             CIRCULAR     1.05       0          0          0          1
7055             CIRCULAR     0.90       0          0          0          1
7073             CIRCULAR     1.35       0          0          0          1
7074             CIRCULAR     1.35       0          0          0          1
7003             CIRCULAR     0.38       0          0          0          1
7214             CIRCULAR     0.30       0          0          0          1
7020             CIRCULAR     0.20       0          0          0          1
7292             CIRCULAR     0.53       0          0          0          1
P1               CIRCULAR     0.90       0          0          0          1
P2               CIRCULAR     0.87       0          0          0          1
P3               CIRCULAR     1.05       0          0          0          1
P7               CIRCULAR     0.80       0          0          0          1
P14              CIRCULAR     1.05       0          0          0          1
D2               TRAPEZOIDAL  0.70       0.50       0          0          1

[LOSSES]
;;Link           Inlet      Outlet     Average    Flap Gate
;;-------------- ---------- ---------- ---------- ----------
6770             0          0          0          NO
6777             0          0          0          NO
6778             0          0          0          NO
6779             0          0          0          NO
6780             0          0          0          NO
6802             0          0          0          NO
6811             0          0          0          NO
6817             0          0          0          NO
6824             0          0          0          NO
6830             0          0          0          NO
6843             0          0          0          NO
6845             0          0          0          NO
6860             0          0          0          NO
6861             0          0          0          NO
6862             0          0          0          NO
6863             0          0          0          NO
6873             0          0          0          NO
6874             0          0          0          NO
6875             0          0          0          NO
6883             0          0          0          NO
6884             0          0          0          NO
6885             0          0          0          NO
6886             0          0          0          NO
6887             0          0          0          NO
6891             0          0          0          NO
6906             0          0          0          NO
6907             0          0          0          NO
6914             0          0          0          NO
6928             0          0          0          NO
6929             0          0          0          NO
6930             0          0          0          NO
6931             0          0          0          NO
6932             0          0          0          NO
6933             0          0          0          NO
7004             0          0          0          NO
7042             0          0          0          NO
7043             0          0          0          NO
7045             0          0          0          NO
7046             0          0          0          NO
7053             0          0          0          NO
7055             0          0          0          NO
7073             0          0          0          NO
7074             0          0          0          NO
7003             0          0          0          NO
7214             0          0          0          NO
7020             0          0          0          NO
7292             0          0          0          NO
P1               0          0          0          NO
P2               0          0          0          NO
P3               0          0          0          NO
P7               0          0          0          NO
P14              0          0          0          NO
D2               0          0          0          NO

[COORDINATES]
;;Node           X-Coord            Y-Coord
;;-------------- ------------------ ------------------
32               -5430434.38        511633.91         
34               -5430434.38        511732.50         
36               -5430433.88        511825.09         
39               -5430343.38        511878.88         
40               -5430331.38        511878.84         
41               -5430287.88        511878.56         
42               -5430242.88        511878.59         
49               -5430229.88        511878.53         
50               -5430241.74        511891.28         
63               -5430433.88        511917.44         
65               -5430364.88        511983.09         
67               -5430229.88        511982.41         
70               -5430149.38        511981.97         
72               -5430147.38        511893.06         
75               -5430147.38        511878.34         
92               -5430091.38        512091.88         
93               -5430136.95        511982.13         
97               -5430163.38        512095.56         
106              -5430333.38        512100.00         
107              -5430433.88        512008.94         
109              -5430433.51        512103.31         
114              -5430036.38        512089.81         
117              -5430027.88        512107.75         
122              -5430029.64        511993.07         
125              -5430023.74        511879.77         
128              -5430020.88        511812.44         
167              -5430028.38        512134.47         
175              -5429999.38        512227.50         
184              -5430276.25        512098.59         
187              -5430215.75        512097.38         
2993             -5430006.88        512221.13         
3083             -5430191.38        511878.53         
3087             -5430186.38        511699.78         
3088             -5430185.38        511662.50         
3400             -5430099.88        511992.45         
3401             -5430149.38        511990.61         
3402             -5430216.88        511992.09         
3414             -5430096.29        511982.23         
3422             -5430104.17        512092.81         
3804             -5430278.38        512012.91         
3822             -5430334.88        512007.19         
4002             -5430187.88        511760.13         
4013             -5430083.38        511923.38         
4037             -5430171.88        512106.81         
4286             -5430337.88        511982.91         
4321             -5430420.38        511993.28         
4322             -5430349.38        511993.00         
4502             -5430159.88        512053.41         
3877             -5430141.28        511776.69         
10014            -5430241.93        511982.59         
10049            -5430261.96        511982.58         
10063            -5430458.22        512103.87         
N2               -5430096.82        511992.62         
Stilling         -5429842.42        512289.26         

[MAP]
DIMENSIONS -5430458.22 511633.91 -5429842.42 512289.26
Units      None

[REPORT]
INPUT            YES
SUBCATCHMENTS    ALL
NODES            ALL
LINKS            ALL



