;; SWMM5 .inp converted from XPSWMM .xp file
;; Generated by XPSWMM Card Reader
;; Source format: XP_CARD | Original title: Frenchtown Drainage Analaysis - 100-year 8-hour FDOT Design Storm

[TITLE]
;;Project Title/Notes
Frenchtown Drainage Analaysis - 100-year 8-hour FDOT Design Storm

[OPTIONS]
FLOW_UNITS           CFS
INFILTRATION         HORTON
FLOW_ROUTING         DYNWAVE
LINK_OFFSETS         DEPTH
MIN_SLOPE            0.0
ALLOW_PONDING        NO
SKIP_STEADY_STATE    NO
ROUTING_STEP         00:00:05
VARIABLE_STEP        0.75
INERTIAL_DAMPING     PARTIAL
NORMAL_FLOW_LIMITED  BOTH
MAX_TRIALS           50
HEAD_TOLERANCE       0.0033

[JUNCTIONS]
;;Name           Elev       MaxDepth   InitDepth  SurDepth   Aponded
;;-------------- ---------- ---------- ---------- ---------- ----------
63060            129.50     0          0          0          0
63070            138.90     0          0          0          0
63055            120.10     0          0          0          0
63065            135.10     0          0          0          0
64070            148.10     0          0          0          0
64080            159.30     0          0          0          0
64090            176.60     0          0          0          0
63045            126.50     0          0          0          0
63050            117.40     0          0          0          0
63020            95.70      0          0          0          0
61020            98.40      0          0          0          0
63030            100.50     0          0          0          0
63040            109.74     0          0          0          0
64060            123.40     0          0          0          0
64045            114.70     0          0          0          0
64050            112.10     0          0          0          0
63025            109.62     0          0          0          0
63015            95.50      0          0          0          0
63010            92.70      0          0          0          0
61010            94.70      0          0          0          0
60600            87.20      0          0          0          0
64040            97.90      0          0          0          0
64030            91.90      0          0          0          0
64035            103.20     0          0          0          0
62060            124.20     0          0          0          0
62040            99.20      0          0          0          0
64020            86.87      0          0          0          0
60000            93.30      0          0          0          0
62010            85.00      0          0          0          0
62020            88.10      0          0          0          0
62030            97.40      0          0          0          0
62050            116.90     0          0          0          0
62065            135.20     0          0          0          0
62025            100.10     0          0          0          0
62015            95.90      0          0          0          0
64086            184.00     0          0          0          0
64085            164.00     0          0          0          0
64075            157.60     0          0          0          0
64069            148.10     0          0          0          0
64064            143.00     0          0          0          0
64063            143.00     0          0          0          0
64055            120.62     0          0          0          0
63044            116.90     0          0          0          0
63049            112.90     0          0          0          0
63048            110.90     0          0          0          0
63024            109.81     0          0          0          0
63005            85.10      0          0          0          0
64042            110.50     0          0          0          0
60500            91.80      0          0          0          0
63006            89.00      0          0          0          0
63004            84.33      0          0          0          0
25Y8H            80.00      0          0          0          0
64019            85.79      0          0          0          0
64031            89.76      0          0          0          0
10Y8H            80.00      0          0          0          0
100Y8H           80.00      0          0          0          0
5Y8H             80.00      0          0          0          0
2Y8H             80.00      0          0          0          0
March94          80.00      0          62.58      0          0
60602            87.00      0          0          0          0
60601            87.00      0          0          0          0
Calibrate        0          0          0          0          0

[STORAGE]
;;Name           Elev       MaxDepth   InitDepth  Shape      Curve/Params
;;-------------- ---------- ---------- ---------- ---------- ----------
64010            87.00      0          7.52       FUNCTIONAL 0 0          0

[CONDUITS]
;;Name           From             To               Length     Roughness  InOffset   OutOffset  InitFlow   MaxFlow
;;-------------- ---------------- ---------------- ---------- ---------- ---------- ---------- ---------- ----------
24080            64090            64086            240.00     0.0120     169.70     158.30     0          0
24079            64086            64085            100.00     0.0120     158.30     156.90     0          0
24078            64085            64080            320.00     0.0120     156.90     155.00     0          0
24077            64080            64075            460.00     0.0120     155.00     153.90     0          0
24076            64075            64070            290.00     0.0120     153.90     144.10     0          0
24074            64070            64069            125.00     0.0120     144.10     143.80     0          0
24067            64069            64064            380.00     0.0200     141.80     133.00     0          0
24065            64064            64063            45.00      0.0120     133.00     132.90     0          0
24061            64063            64060            730.00     0.0200     132.90     117.30     0          0
24050            64060            64050            900.00     0.0120     117.30     104.50     0          0
24055            64060            64055            380.00     0.0120     119.21     115.63     0          0
24056            64055            63025            460.00     0.0120     115.63     104.35     0          0
23070            63070            63060            400.00     0.0120     132.30     122.40     0          0
30inch           24inch           63050            850.00     0.0140     122.40     108.30     0          0
23065            63065            63045            450.00     0.0120     126.80     115.50     0          0
23045            63045            63044            430.00     0.0120     115.45     109.24     0          0
23043            63044            63040            553.00     0.0120     108.24     98.68      0          0
23055            63055            63045            300.00     0.0120     116.52     116.45     0          0
23054            63055            63050            250.00     0.0120     114.63     108.17     0          0
23050            63050            63049            450.00     0.0120     107.30     103.10     0          0
23048            63049            63048            33.00      0.0120     103.05     102.00     0          0
23047            63048            63040            580.00     0.0120     102.00     97.18      0          0
23036            63040            63025            178.00     0.0120     97.18      96.75      0          0
23034            63025            63024            153.00     0.0120     96.75      96.31      0          0
23040            63040            63030            590.00     0.0120     97.18      92.00      0          0
23030            63030            63020            600.00     0.0120     92.00      86.60      0          0
23020            63020            63010            300.00     0.0120     86.00      85.82      0          0
23015            63015            63010            490.00     0.0120     88.00      84.30      0          0
23025            63024            63015            920.00     0.0120     102.30     88.00      0          0
282.1            63010            63006            325.00     0.0120     84.30      81.90      0          0
23033            63024            64042            355.00     0.0120     96.31      95.81      0          0
24042            64042            64050            227.00     0.0120     95.80      95.67      0          0
24-RCP           36-RCP           64040            540.00     0.0120     100.05     87.70      0          0
24051            64050            64035            356.00     0.0120     95.67      94.96      0          0
24045            64045            64035            890.00     0.0120     104.60     95.10      0          0
22060            62065            62060            794.00     0.0120     126.70     110.12     0          0
22050            62060            62050            320.00     0.0120     110.10     105.00     0          0
22040            62050            62040            900.00     0.0120     105.00     88.70      0          0
24035            64035            64030            700.00     0.0120     95.10      81.30      0          0
24030            64040            64030            400.00     0.0120     87.70      81.30      0          0
22030            62040            62030            420.00     0.0120     88.36      85.95      0          0
22020            62030            62020            730.00     0.0120     84.80      76.40      0          0
22010            62020            62010            620.00     0.0120     76.40      75.20      0          0
22000            62010            60500            670.00     0.0120     75.20      74.10      0          0
22015            62015            62020            390.00     0.0120     91.50      76.40      0          0
2-3ftRCP         30"RCP           63005            325.00     0.0120     81.90      79.50      0          0
23004            63005            63004            220.00     0.0120     79.50      78.68      0          0
WEST-IN          63004            64010            85.00      0.0120     78.00      75.41      0          0
21010            61020            61010            1030.00    0.0120     89.90      83.30      0          0
21000            61010            60500            340.00     0.0120     83.30      73.60      0          0
CD-215P          60000            100Y8H           1058.00    0.0120     73.44      62.58      0          0
2-12X5CBC        O-LAND1          94-CHAN          280.00     0.0120     74.17      73.51      0          0
12X10CBC         O-LAND2          94CHAN           310.00     0.0120     73.50      73.44      0          0
22021            64020            64019            40.00      0.0120     76.67      75.85      0          0
22022            64019            64010            15.00      0.0120     75.85      74.36      0          0
2*36RCP          1*30RCP          64031            140.00     0.0120     81.44      79.76      0          0
2-3RCP           1-2.5RCP         64020            295.00     0.0120     79.76      76.67      0          0
24011            64031            64010            85.00      0.0120     77.50      76.12      0          0
22025            62025            62030            420.00     0.0120     93.90      84.80      0          0
DEWEY-ROT        64010            60600            33.00      0.0420     82.92      82.89      0          0
D1-PIPES         60601            60600            404.00     0.0120     75.24      74.25      0          0
D2-PIPES         60602            60600            340.00     0.0120     78.38      75.82      0          0
Ghost            Calibrate        63065            0          0          0          0          0          0

[ORIFICES]
;;Name           From             To               Type       Offset     Qcoeff     Gated    CloseTime
;;-------------- ---------------- ---------------- ---------- ---------- ---------- -------- ----------
WEIR1            ORIFICE          60601            SIDE       75.24      0.650      NO       0

[WEIRS]
;;Name           From             To               Type       CrestHt    Qcoeff     Gated    EndCon   EndCoeff   Surcharge
;;-------------- ---------------- ---------------- ---------- ---------- ---------- -------- -------- ---------- ----------
D2WEIR           WEIR2            60602            TRANSVERSE 77.37      1.840      NO       0        0          YES

[XSECTIONS]
;;Link           Shape        Geom1      Geom2      Geom3      Geom4      Barrels
;;-------------- ------------ ---------- ---------- ---------- ---------- ----------
24080            CIRCULAR     2.50       0          0          0          1
24079            CIRCULAR     2.50       0          0          0          1
24078            CIRCULAR     2.50       0          0          0          1
24077            CIRCULAR     3.00       0          0          0          1
24076            CIRCULAR     2.50       0          0          0          2
24074            CIRCULAR     2.50       0          0          0          2
24067            TRAPEZOIDAL  6.00       4.00       0          0          1
24065            CIRCULAR     2.50       0          0          0          2
24061            TRAPEZOIDAL  6.00       4.00       0          0          1
24050            CIRCULAR     3.00       0          0          0          1
24055            CIRCULAR     2.50       0          0          0          1
24056            CIRCULAR     2.50       0          0          0          1
23070            CIRCULAR     2.00       0          0          0          1
30inch           CIRCULAR     2.50       0          0          0          1
23065            CIRCULAR     2.00       0          0          0          1
23045            CIRCULAR     2.50       0          0          0          1
23043            CIRCULAR     3.50       0          0          0          1
23055            CIRCULAR     2.00       0          0          0          1
23054            CIRCULAR     2.00       0          0          0          1
23050            CIRCULAR     2.50       0          0          0          2
23048            CIRCULAR     4.00       0          0          0          1
23047            CIRCULAR     4.00       0          0          0          1
23036            CIRCULAR     8.00       0          0          0          1
23034            CIRCULAR     8.00       0          0          0          1
23040            CIRCULAR     3.00       0          0          0          1
23030            CIRCULAR     3.00       0          0          0          1
23020            HORSESHOE    5.00       0          0          0          1
23015            CIRCULAR     3.00       0          0          0          1
23025            CIRCULAR     3.00       0          0          0          1
282.1            CIRCULAR     3.00       0          0          0          2
23033            CIRCULAR     6.00       0          0          0          1
24042            CIRCULAR     2.50       0          0          0          1
24-RCP           CIRCULAR     2.00       0          0          0          1
24051            CIRCULAR     3.00       0          0          0          1
24045            CIRCULAR     3.00       0          0          0          1
22060            CIRCULAR     4.00       0          0          0          1
22050            CIRCULAR     4.00       0          0          0          1
22040            CIRCULAR     4.50       0          0          0          1
24035            CIRCULAR     3.00       0          0          0          1
24030            CIRCULAR     3.00       0          0          0          2
22030            RECT_CLOSED  5.00       5.00       0          0          1
22020            RECT_CLOSED  5.00       5.00       0          0          1
22010            RECT_CLOSED  5.00       5.00       0          0          1
22000            CIRCULAR     5.50       5.00       0          0          1
22015            CIRCULAR     3.00       0          0          0          1
2-3ftRCP         CIRCULAR     3.00       0          0          0          2
23004            CIRCULAR     3.00       0          0          0          3
WEST-IN          HORSESHOE    6.33       0          0          0          1
21010            CIRCULAR     2.50       0          0          0          1
21000            CIRCULAR     2.50       0          0          0          1
CD-215P          RECT_CLOSED  10.00      10.00      0          0          1
2-12X5CBC        RECT_CLOSED  5.00       12.00      0          0          2
12X10CBC         RECT_CLOSED  10.00      12.00      0          0          1
22021            CIRCULAR     3.00       0          0          0          3
22022            CIRCULAR     5.00       0          0          0          1
2*36RCP          CIRCULAR     3.00       0          0          0          2
2-3RCP           CIRCULAR     3.00       0          0          0          2
24011            CIRCULAR     3.50       0          0          0          1
22025            CIRCULAR     2.50       0          0          0          1
DEWEY-ROT        IRREGULAR    3.58       0          0          0          1
D1-PIPES         CIRCULAR     3.00       0          0          0          3
D2-PIPES         CIRCULAR     3.00       0          0          0          3
Ghost            CIRCULAR     0          0          0          0          1
WEIR1            RECT_CLOSED  3.00       0          0          0          
D2WEIR           RECT_OPEN    0          21.00      0          0          

[LOSSES]
;;Link           Inlet      Outlet     Average    Flap Gate
;;-------------- ---------- ---------- ---------- ----------
24080            0          0          0          NO
24079            0          0          0          NO
24078            0          0          0          NO
24077            0          0          0          NO
24076            0          0          0          NO
24074            0          0          0          NO
24067            0          0          0          NO
24065            0          0          0          NO
24061            0          0          0          NO
24050            0          0          0          NO
24055            0          0          0          NO
24056            0          0          0          NO
23070            0          0          0          NO
30inch           0          0          0          NO
23065            0          0          0          NO
23045            0          0          0          NO
23043            0          0          0          NO
23055            0          0          0          NO
23054            0          0          0          NO
23050            0          0          0          NO
23048            0          0          0          NO
23047            0          0          0          NO
23036            0          0          0          NO
23034            0          0          0          NO
23040            0          0          0          NO
23030            0          0          0          NO
23020            0          0          0          NO
23015            0          0          0          NO
23025            0          0          0          NO
282.1            0          0          0          NO
23033            0          0          0          NO
24042            0          0          0          NO
24-RCP           0          0          0          NO
24051            0          0          0          NO
24045            0          0          0          NO
22060            0          0          0          NO
22050            0          0          0          NO
22040            0          0          0          NO
24035            0          0          0          NO
24030            0          0          0          NO
22030            0          0          0          NO
22020            0          0          0          NO
22010            0          0          0          NO
22000            0          0          0          NO
22015            0          0          0          NO
2-3ftRCP         0          0          0          NO
23004            0          0          0          NO
WEST-IN          0          0          0          NO
21010            0          0          0          NO
21000            0          0          0          NO
CD-215P          0          0          0          NO
2-12X5CBC        0          0          0          NO
12X10CBC         0          0          0          NO
22021            0          0          0          NO
22022            0          0          0          NO
2*36RCP          0          0          0          NO
2-3RCP           0          0          0          NO
24011            0          0          0          NO
22025            0          0          0          NO
DEWEY-ROT        0          0          0          NO
D1-PIPES         0          0          0          NO
D2-PIPES         0          0          0          NO
Ghost            0          0          0          NO

[COORDINATES]
;;Node           X-Coord            Y-Coord
;;-------------- ------------------ ------------------
63060            -528878.20         2033380.84        
63070            -529222.04         2033135.17        
63055            -528219.52         2034076.49        
63065            -528695.61         2034381.62        
64070            -527833.58         2036420.06        
64080            -528211.93         2036850.19        
64090            -528193.59         2037377.68        
63045            -528210.13         2034391.94        
63050            -528209.03         2033823.75        
63020            -527168.91         2033431.72        
61020            -526534.63         2032809.81        
63030            -527185.47         2033925.65        
63040            -527166.16         2034595.84        
64060            -527443.81         2035157.88        
64045            -526158.24         2036000.62        
64050            -526555.71         2035142.58        
63025            -526989.79         2034715.75        
63015            -526855.17         2034042.19        
63010            -526832.42         2033425.48        
61010            -525491.04         2032813.52        
60600            -525415.29         2033354.97        
64010            -525770.74         2033873.47        
64040            -526522.75         2034416.43        
64030            -526155.46         2034413.52        
64035            -526165.50         2035152.70        
62060            -525764.40         2036427.45        
62040            -525787.68         2035136.03        
64020            -525761.86         2034404.07        
60000            -525167.96         2032832.09        
62010            -525358.80         2033803.18        
62020            -525387.94         2034386.78        
62030            -525376.05         2035157.77        
62050            -525770.10         2036032.97        
62065            -525374.74         2036448.97        
62025            -524950.69         2035165.83        
62015            -524985.72         2034407.49        
64086            -528213.62         2037213.64        
64085            -528213.62         2037105.45        
64075            -528206.96         2036446.54        
64069            -527826.58         2036268.50        
64064            -527699.03         2035987.24        
64063            -527657.76         2035915.29        
64055            -526969.10         2035132.53        
63044            -527774.14         2034468.19        
63049            -527857.56         2034133.05        
63048            -527591.82         2034324.61        
63024            -526868.47         2034774.60        
63005            -526146.18         2033413.44        
64042            -526560.14         2034927.04        
60500            -525291.26         2033104.36        
63006            -526548.26         2033430.90        
63004            -525942.76         2033411.28        
25Y8H            -524450.57         2032099.01        
64019            -525760.19         2034108.08        
64031            -526004.53         2034416.88        
10Y8H            -524391.29         2032099.10        
100Y8H           -524497.96         2032096.86        
5Y8H             -524336.27         2032100.32        
2Y8H             -524289.71         2032092.75        
March94          -524562.80         2032090.83        
60602            -525648.35         2033631.00        
60601            -525593.85         2033694.16        
Calibrate        -528825.92         2034542.25        

[MAP]
DIMENSIONS -529222.04 2032090.83 -524289.71 2037377.68
Units      None

[REPORT]
INPUT            YES
SUBCATCHMENTS    ALL
NODES            ALL
LINKS            ALL



