;; SWMM5 .inp converted from XPSWMM .xp file
;; Generated by XPSWMM Card Reader
;; Source format: XP_CARD | Original title: Springfield Sports Center

[TITLE]
;;Project Title/Notes
Springfield Sports Center

[OPTIONS]
FLOW_UNITS           CFS
INFILTRATION         HORTON
FLOW_ROUTING         DYNWAVE
LINK_OFFSETS         DEPTH
MIN_SLOPE            0.0
ALLOW_PONDING        NO
SKIP_STEADY_STATE    NO
ROUTING_STEP         00:00:10
VARIABLE_STEP        0.75
INERTIAL_DAMPING     PARTIAL
NORMAL_FLOW_LIMITED  BOTH
MAX_TRIALS           50
HEAD_TOLERANCE       1e-5

[JUNCTIONS]
;;Name           Elev       MaxDepth   InitDepth  SurDepth   Aponded
;;-------------- ---------- ---------- ---------- ---------- ----------
54C26107         438.00     0          0          0          0
54C26103         438.50     0          0          0          0
54C26104         435.00     0          0          0          0
54C26105         432.50     0          0          0          0
54C25110         432.50     0          0          0          0
54C25113         433.00     0          0          0          0
54C22352         431.00     0          0          0          0
67C22353         429.00     0          0          0          0
67C22110         428.00     0          0          0          0
67C15104         426.47     0          0          0          0
67C15105         425.87     0          0          0          0
67C12101         426.81     0          0          0          0
67C12102         426.26     0          0          0          0
54C22103         432.00     0          0          0          0
67C15103         429.25     0          0          0          0
67C15102         426.26     0          0          0          0
67C15101         426.81     0          0          0          0
54C31103         436.57     0          0          0          0
54C31101         436.00     0          0          0          0
54C31102         435.13     0          0          0          0
67C22102         427.00     0          0          0          0
STA1+00          423.00     0          0          0          0
STA1+50          423.00     0          0          0          0
STA2+00          423.00     0          0          0          0
STA2+50          423.00     0          0          0          0
STA3+00          423.00     0          0          0          0
STA3+50          423.00     0          0          0          0
STA4+00          422.00     0          0          0          0
STA4+50          422.00     0          0          0          0
STA5+00          422.00     0          0          0          0
STA5+50          422.00     0          0          0          0
STA6+00          421.00     0          0          0          0
STA6+50          421.00     0          0          0          0
STA7+00          421.00     0          0          0          0
STA7+50          422.00     0          0          0          0
STA8+00          422.00     0          0          0          0
STA8+50          422.00     0          0          0          0
STA9+00          422.00     0          0          0          0
STA9+50          422.00     0          0          0          0
STA10+00         422.00     0          0          0          0
STA10+50         422.00     0          0          0          0
STA11+00         422.00     0          0          0          0
STA11+50         422.00     0          0          0          0
STA12+00         422.00     0          0          0          0
STA12+50         422.00     0          0          0          0
STA13+00         422.00     0          0          0          0
STA13+50         423.00     0          0          0          0
STA14+00         423.00     0          0          0          0
STA14+50         422.00     0          0          0          0
STA15+00         422.00     0          0          0          0
STA15+50         422.00     0          0          0          0
STA16+00         422.00     0          0          0          0
STA16+50         422.00     0          0          0          0
STA17+00         422.00     0          0          0          0
STA17+50         422.00     0          0          0          0
STA18+00         421.00     0          0          0          0
STA18+50         421.00     0          0          0          0
STA19+00         421.00     0          0          0          0
STA19+50         421.00     0          0          0          0
STA20+00         421.00     0          0          0          0
STA20+50         421.00     0          0          0          0
STA21+00         422.00     0          0          0          0
STA21+50         422.00     0          0          0          0
STA0+00          423.00     0          0          0          0
134              423.00     0          0          0          0
135              422.00     0          1.50       0          0
137              424.00     0          1.50       0          0
139              423.00     0          1.50       0          0
141              423.00     0          1.50       0          0
144              423.00     0          1.50       0          0
146              423.00     0          1.50       0          0
148              423.00     0          1.50       0          0
150              424.00     0          0          0          0
STA0+50          421.00     0          0          0          0

[CONDUITS]
;;Name           From             To               Length     Roughness  InOffset   OutOffset  InitFlow   MaxFlow
;;-------------- ---------------- ---------------- ---------- ---------- ---------- ---------- ---------- ----------
5426010          5426010rd        54C26103         454.00     0.0140     425.50     424.20     0          0
5426020          5426020rd        54C26104         230.00     0.0140     424.20     422.90     0          0
54C26030         54C26104         54C26105         258.00     0.0140     422.90     422.70     0          0
5426040          5426040rd        54C25110         255.00     0.0140     422.70     421.70     0          0
54c25010         54c25010rd       54C25113         62.00      0.0140     421.70     420.50     0          0
54c22010         54c22010rd       54C22352         300.00     0.0140     420.50     420.00     0          0
54C22020         54C22352         67C22353         640.00     0.0140     420.00     419.00     0          0
67C22010         67C22353         67C22102         75.00      0.0140     419.00     418.98     0          0
67C22030         67C22110         67C15101         303.00     0.0140     417.90     417.40     0          0
67C15040         67C15104         67C15105         163.00     0.0140     417.50     416.90     0          0
67C15050         67C15105         67C12101         406.00     0.0140     416.90     416.60     0          0
67C12010         67C12101         67C12102         84.00      0.0140     416.60     416.50     0          0
67C12020         67C12102         134              200.00     0.0140     416.50     416.70     0          0
54c25020         54c25020rd       54C22103         420.00     0.0140     420.50     420.50     0          0
67C15030         67C15103         67C15104         165.00     0.0140     417.40     417.50     0          0
67C15020         67C15102         67C15103         146.00     0.0140     417.30     417.40     0          0
67C15010         67C15101         67C15102         162.00     0.0140     417.40     417.30     0          0
54C31020         54C31101         54C31103         105.00     0.0140     427.10     427.10     0          0
54C31030         54C31103         54C26107         306.00     0.0140     427.10     425.50     0          0
54C31010         54C31102         54C31101         334.00     0.0140     431.90     427.10     0          0
67c22015         67c22015rd       67C22110         87.00      0.0140     418.80     417.90     0          0
1+00             STA1+00          STA1+50          50.00      0.0140     412.50     412.10     0          0
1+50             STA1+50          STA2+00          50.00      0.0140     412.10     411.60     0          0
2+00             STA2+00          STA2+50          50.00      0.0140     411.60     411.10     0          0
2+50             STA2+50          STA3+00          50.00      0.0140     411.10     411.02     0          0
3+00             STA3+00          STA3+50          50.00      0.0140     411.02     411.80     0          0
3+50             STA3+50          STA4+00          50.00      0.0140     411.80     411.23     0          0
4+00             STA4+00          STA4+50          50.00      0.0140     411.23     411.00     0          0
4+50             STA4+50          STA5+00          50.00      0.0140     411.00     411.40     0          0
5+00             STA5+00          STA5+50          50.00      0.0140     411.40     411.90     0          0
5+50             STA5+50          STA6+00          50.00      0.0140     411.90     413.10     0          0
6+00             STA6+00          STA6+50          50.00      0.0140     413.10     413.40     0          0
6+50             STA6+50          STA7+00          50.00      0.0140     413.40     413.49     0          0
7+00             STA7+00          STA7+50          50.00      0.0140     413.49     413.70     0          0
7+50             STA7+50          STA8+00          50.00      0.0140     413.70     413.60     0          0
8+00             STA8+00          STA8+50          50.00      0.0140     413.60     413.57     0          0
8+50             STA8+50          STA9+00          50.00      0.0140     413.57     413.50     0          0
9+00             STA9+00          STA9+50          50.00      0.0140     413.50     411.46     0          0
9+50             STA9+50          STA10+00         50.00      0.0140     411.46     412.80     0          0
10+00            STA10+00         STA10+50         50.00      0.0140     412.80     412.50     0          0
10+50            STA10+50         STA11+00         50.00      0.0140     412.50     412.00     0          0
11+00            STA11+00         STA11+50         50.00      0.0140     412.00     411.60     0          0
11+50            STA11+50         STA12+00         50.00      0.0140     411.60     411.40     0          0
12+00            STA12+00         STA12+50         50.00      0.0140     411.40     410.70     0          0
12+50            STA12+50         STA13+00         50.00      0.0140     410.70     410.60     0          0
13+00            STA13+00         STA13+50         50.00      0.0140     410.60     410.40     0          0
13+50            STA13+50         STA14+00         50.00      0.0140     410.40     412.00     0          0
14+00            STA14+00         STA14+50         50.00      0.0140     412.00     412.10     0          0
14+50            STA14+50         STA15+00         50.00      0.0140     412.10     412.00     0          0
15+00            STA15+00         STA15+50         50.00      0.0140     412.00     412.20     0          0
15+50            STA15+50         STA16+00         50.00      0.0140     412.20     407.60     0          0
16+00            STA16+00         STA16+50         50.00      0.0140     407.60     406.30     0          0
16+50            STA16+50         STA17+00         50.00      0.0140     406.30     405.70     0          0
17+00            STA17+00         STA17+50         50.00      0.0140     405.70     407.00     0          0
17+50            STA17+50         STA18+00         50.00      0.0140     407.00     407.20     0          0
18+00            STA18+00         STA18+50         50.00      0.0140     407.20     407.30     0          0
18+50            STA18+50         STA19+00         50.00      0.0140     407.30     407.40     0          0
19+00            STA19+00         STA19+50         50.00      0.0140     407.40     407.39     0          0
19+50            STA19+50         STA20+00         50.00      0.0140     407.39     407.10     0          0
20+00            STA20+00         STA20+50         50.00      0.0140     407.10     406.40     0          0
20+50            STA20+50         STA21+00         50.00      0.0140     406.40     406.80     0          0
21+00            STA21+00         STA21+50         50.00      0.0140     406.80     407.50     0          0
0+50             STA0+50          STA1+00          50.00      0.0140     412.80     412.50     0          0
new              134              135              230.00     0.0140     416.70     416.47     0          0
forebay          fbayover         137              280.00     0.0140     415.00     414.99     0          0
wetpond1         139              141              100.00     0.2000     415.00     414.99     0          0
wetpond2         141              144              75.00      0.0140     414.99     414.98     0          0
wetpond3         144              146              60.00      0.0140     414.98     414.97     0          0
wetpond4         146              148              175.00     0.2000     414.97     414.96     0          0
INLETPOND        PONDRD           139              12.00      0.0140     416.50     416.28     0          0
353.1            STA0+00          STA0+50          250.00     0.0140     414.00     412.80     0          0

[ORIFICES]
;;Name           From             To               Type       Offset     Qcoeff     Gated    CloseTime
;;-------------- ---------------- ---------------- ---------- ---------- ---------- -------- ----------
orifice          OVERFLOW3        STA0+00          SIDE       416.50     0.650      NO       0

[WEIRS]
;;Name           From             To               Type       CrestHt    Qcoeff     Gated    EndCon   EndCoeff   Surcharge
;;-------------- ---------------- ---------------- ---------- ---------- ---------- -------- -------- ---------- ----------
PIPE             OVERFLOW         oldroad          TRANSVERSE 418.00     1.840      NO       0        0          YES

[XSECTIONS]
;;Link           Shape        Geom1      Geom2      Geom3      Geom4      Barrels
;;-------------- ------------ ---------- ---------- ---------- ---------- ----------
5426010          CIRCULAR     2.00       0          0          0          1
5426020          CIRCULAR     2.00       0          0          0          1
54C26030         CIRCULAR     2.00       0          0          0          1
5426040          CIRCULAR     2.00       0          0          0          1
54c25010         CIRCULAR     2.50       0          0          0          1
54c22010         CIRCULAR     2.50       0          0          0          1
54C22020         IRREGULAR    0          0          0          0          1
67C22010         CIRCULAR     3.00       0          0          0          1
67C22030         CIRCULAR     4.00       0          0          0          1
67C15040         CIRCULAR     4.00       0          0          0          1
67C15050         CIRCULAR     4.00       0          0          0          1
67C12010         CIRCULAR     4.00       0          0          0          1
67C12020         CIRCULAR     4.00       0          0          0          1
54c25020         CIRCULAR     2.50       0          0          0          1
67C15030         CIRCULAR     4.00       0          0          0          1
67C15020         CIRCULAR     4.00       0          0          0          1
67C15010         CIRCULAR     4.00       0          0          0          1
54C31020         CIRCULAR     2.00       0          0          0          1
54C31030         CIRCULAR     2.00       0          0          0          1
54C31010         CIRCULAR     1.50       0          0          0          1
67c22015         CIRCULAR     3.50       0          0          0          1
1+00             IRREGULAR    0          0          0          0          1
1+50             IRREGULAR    0          0          0          0          1
2+00             IRREGULAR    0          0          0          0          1
2+50             IRREGULAR    0          0          0          0          1
3+00             IRREGULAR    0          0          0          0          1
3+50             IRREGULAR    0          0          0          0          1
4+00             IRREGULAR    0          0          0          0          1
4+50             IRREGULAR    0          0          0          0          1
5+00             IRREGULAR    0          0          0          0          1
5+50             IRREGULAR    0          0          0          0          1
6+00             IRREGULAR    0          0          0          0          1
6+50             IRREGULAR    0          0          0          0          1
7+00             IRREGULAR    0          0          0          0          1
7+50             IRREGULAR    0          0          0          0          1
8+00             IRREGULAR    0          0          0          0          1
8+50             IRREGULAR    0          0          0          0          1
9+00             IRREGULAR    0          0          0          0          1
9+50             IRREGULAR    0          0          0          0          1
10+00            IRREGULAR    0          0          0          0          1
10+50            IRREGULAR    0          0          0          0          1
11+00            IRREGULAR    0          0          0          0          1
11+50            IRREGULAR    0          0          0          0          1
12+00            IRREGULAR    0          0          0          0          1
12+50            IRREGULAR    0          0          0          0          1
13+00            IRREGULAR    0          0          0          0          1
13+50            IRREGULAR    0          0          0          0          1
14+00            IRREGULAR    0          0          0          0          1
14+50            IRREGULAR    0          0          0          0          1
15+00            IRREGULAR    0          0          0          0          1
15+50            IRREGULAR    0          0          0          0          1
16+00            IRREGULAR    0          0          0          0          1
16+50            IRREGULAR    0          0          0          0          1
17+00            IRREGULAR    0          0          0          0          1
17+50            IRREGULAR    0          0          0          0          1
18+00            IRREGULAR    0          0          0          0          1
18+50            IRREGULAR    0          0          0          0          1
19+00            IRREGULAR    0          0          0          0          1
19+50            IRREGULAR    0          0          0          0          1
20+00            IRREGULAR    0          0          0          0          1
20+50            IRREGULAR    0          0          0          0          1
21+00            IRREGULAR    0          0          0          0          1
0+50             IRREGULAR    0          0          0          0          1
new              CIRCULAR     4.00       0          0          0          1
forebay          TRAPEZOIDAL  6.00       10.00      0          0          1
wetpond1         IRREGULAR    0          176.00     0          0          1
wetpond2         IRREGULAR    0          0          0          0          1
wetpond3         IRREGULAR    0          0          0          0          1
wetpond4         IRREGULAR    0          4.00       0          0          1
INLETPOND        CIRCULAR     2.50       0          0          0          1
353.1            IRREGULAR    0          0          0          0          1
orifice          RECT_CLOSED  0.83       0          0          0          
PIPE             RECT_OPEN    0          3.00       0          0          

[LOSSES]
;;Link           Inlet      Outlet     Average    Flap Gate
;;-------------- ---------- ---------- ---------- ----------
5426010          0          0          0          NO
5426020          0          0          0          NO
54C26030         0          0          0          NO
5426040          0          0          0          NO
54c25010         0          0          0          NO
54c22010         0          0          0          NO
54C22020         0          0          0          NO
67C22010         0          0          0          NO
67C22030         0          0          0          NO
67C15040         0          0          0          NO
67C15050         0          0          0          NO
67C12010         0          0          0          NO
67C12020         0          0          0          NO
54c25020         0          0          0          NO
67C15030         0          0          0          NO
67C15020         0          0          0          NO
67C15010         0          0          0          NO
54C31020         0          0          0          NO
54C31030         0          0          0          NO
54C31010         0          0          0          NO
67c22015         0          0          0          NO
1+00             0          0          0          NO
1+50             0          0          0          NO
2+00             0          0          0          NO
2+50             0          0          0          NO
3+00             0          0          0          NO
3+50             0          0          0          NO
4+00             0          0          0          NO
4+50             0          0          0          NO
5+00             0          0          0          NO
5+50             0          0          0          NO
6+00             0          0          0          NO
6+50             0          0          0          NO
7+00             0          0          0          NO
7+50             0          0          0          NO
8+00             0          0          0          NO
8+50             0          0          0          NO
9+00             0          0          0          NO
9+50             0          0          0          NO
10+00            0          0          0          NO
10+50            0          0          0          NO
11+00            0          0          0          NO
11+50            0          0          0          NO
12+00            0          0          0          NO
12+50            0          0          0          NO
13+00            0          0          0          NO
13+50            0          0          0          NO
14+00            0          0          0          NO
14+50            0          0          0          NO
15+00            0          0          0          NO
15+50            0          0          0          NO
16+00            0          0          0          NO
16+50            0          0          0          NO
17+00            0          0          0          NO
17+50            0          0          0          NO
18+00            0          0          0          NO
18+50            0          0          0          NO
19+00            0          0          0          NO
19+50            0          0          0          NO
20+00            0          0          0          NO
20+50            0          0          0          NO
21+00            0          0          0          NO
0+50             0          0          0          NO
new              0          0          0          NO
forebay          0          0          0          NO
wetpond1         0          0          0          NO
wetpond2         0          0          0          NO
wetpond3         0          0          0          NO
wetpond4         0          0          0          NO
INLETPOND        0          0          0          NO
353.1            0          0          0          NO

[COORDINATES]
;;Node           X-Coord            Y-Coord
;;-------------- ------------------ ------------------
54C26107         99.72              164.99            
54C26103         102.81             122.38            
54C26104         77.20              121.69            
54C26105         56.32              116.29            
54C25110         57.70              81.42             
54C25113         45.17              80.97             
54C22352         21.56              81.71             
67C22353         17.77              64.85             
67C22110         11.30              36.12             
67C15104         -32.49             35.61             
67C15105         -62.36             36.75             
67C12101         -119.10            37.06             
67C12102         -143.68            43.43             
54C22103         34.39              81.59             
67C15103         -20.31             35.89             
67C15102         -9.93              36.00             
67C15101         0.12               36.08             
54C31103         122.61             166.68            
54C31101         122.71             187.71            
54C31102         138.88             187.97            
67C22102         17.42              57.41             
STA1+00          -319.47            124.65            
STA1+50          -327.24            127.20            
STA2+00          -344.27            135.05            
STA2+50          -368.99            145.49            
STA3+00          -396.72            153.71            
STA3+50          -418.54            163.46            
STA4+00          -440.29            180.41            
STA4+50          -460.83            196.33            
STA5+00          -477.08            214.82            
STA5+50          -500.20            232.80            
STA6+00          -515.60            243.36            
STA6+50          -527.93            253.12            
STA7+00          -543.85            267.72            
STA7+50          -554.92            280.83            
STA8+00          -563.74            287.25            
STA8+50          -572.06            295.01            
STA9+00          -581.01            303.24            
STA9+50          -589.62            310.72            
STA10+00         -596.57            316.94            
STA10+50         -602.72            321.27            
STA11+00         -609.07            326.56            
STA11+50         -614.81            331.41            
STA12+00         -621.30            336.16            
STA12+50         -627.45            342.93            
STA13+00         -632.98            349.04            
STA13+50         -639.03            356.62            
STA14+00         -645.45            360.92            
STA14+50         -651.13            364.80            
STA15+00         -658.68            368.29            
STA15+50         -665.68            373.00            
STA16+00         -673.32            376.49            
STA16+50         -679.87            381.29            
STA17+00         -686.99            384.76            
STA17+50         -699.10            388.77            
STA18+00         -709.97            390.21            
STA18+50         -717.71            391.64            
STA19+00         -724.93            391.67            
STA19+50         -731.90            391.83            
STA20+00         -737.38            392.03            
STA20+50         -744.14            393.10            
STA21+00         -750.33            395.05            
STA21+50         -757.53            398.33            
STA0+00          -295.29            113.34            
134              -189.31            54.47             
135              -209.90            63.38             
137              -224.84            71.11             
139              -247.24            83.05             
141              -257.16            87.61             
144              -267.17            93.61             
146              -276.33            99.87             
148              -285.90            105.24            
150              -235.59            78.33             
STA0+50          -306.62            118.56            

[MAP]
DIMENSIONS -757.53 35.61 138.88 398.33
Units      None

[REPORT]
INPUT            YES
SUBCATCHMENTS    ALL
NODES            ALL
LINKS            ALL



