;; SWMM5 .inp converted from XPSWMM .xp file
;; Generated by XPSWMM Card Reader
;; Source format: XP_CARD | Original title: 1MTP0108.20 PLAYA VISTA CONCEPTUAL SALT MARSH DESIGN - MTK  08-03-95

[TITLE]
;;Project Title/Notes
1MTP0108.20 PLAYA VISTA CONCEPTUAL SALT MARSH DESIGN - MTK  08-03-95

[OPTIONS]
FLOW_UNITS           CFS
INFILTRATION         HORTON
FLOW_ROUTING         DYNWAVE
LINK_OFFSETS         DEPTH
MIN_SLOPE            0.0
ALLOW_PONDING        NO
SKIP_STEADY_STATE    NO
ROUTING_STEP         00:00:10
VARIABLE_STEP        0.75
INERTIAL_DAMPING     PARTIAL
NORMAL_FLOW_LIMITED  BOTH
MAX_TRIALS           30

[JUNCTIONS]
;;Name           Elev       MaxDepth   InitDepth  SurDepth   Aponded
;;-------------- ---------- ---------- ---------- ---------- ----------
110              21.00      0          7.64       0          0
100              18.00      0          10.55      0          0
120              22.00      0          7.18       0          0
130              24.40      0          5.56       0          0
140              27.00      0          3.83       0          0
150              31.00      0          0.61       0          0
151              32.33      0          0          0          0
152              33.67      0          0          0          0
153              35.00      0          0          0          0
157              45.18      0          0          0          0
210              17.00      0          1.07       0          0
213              20.00      0          0.13       0          0
226              20.00      0          0          0          0
220              20.00      0          0          0          0
230              20.00      0          0          0          0
240              20.00      0          0          0          0
250              20.00      0          0          0          0
231              11.00      0          0          0          0
660              15.00      0          1.13       0          0
610              15.00      0          1.10       0          0
410              15.00      0          1.12       0          0
636              15.00      0          0          0          0
634              15.00      0          0.73       0          0
560              15.00      0          0          0          0
510              15.00      0          0.14       0          0
570              15.00      0          0          0          0
530              15.00      0          0.83       0          0
310              15.00      0          1.65       0          0
430              15.00      0          0.78       0          0
370              15.00      0          0          0          0
534              15.00      0          0          0          0
650              15.00      0          0.23       0          0
420              15.00      0          0.92       0          0
320              15.00      0          0.47       0          0
322              15.00      0          0          0          0
330              20.00      0          1.21       0          0
332              15.00      0          0          0          0
334              20.00      0          0          0          0
340              20.00      0          0.78       0          0
350              20.00      0          0          0          0
360              15.00      0          0.23       0          0
372              15.00      0          0          0          0
374              15.00      0          0          0          0
376              15.00      0          0          0          0
540              15.00      0          0.73       0          0
620              15.00      0          0.93       0          0
626              15.00      0          0          0          0
630              15.00      0          0.68       0          0
640              15.00      0          0.54       0          0
638              15.00      0          0          0          0
254              20.00      0          0          0          0
252              11.00      0          0          0          0
260              35.00      0          0          0          0
241              20.00      0          0          0          0

[CONDUITS]
;;Name           From             To               Length     Roughness  InOffset   OutOffset  InitFlow   MaxFlow
;;-------------- ---------------- ---------------- ---------- ---------- ---------- ---------- ---------- ----------
1001             110              100              2620.00    0.0370     -10.41     -13.32     0          0
1101             120              110              610.00     0.0260     -9.95      -10.41     0          0
1201             130              120              2170.00    0.0240     -8.33      -9.95      0          0
1301             140              130              2300.00    0.0250     -6.60      -8.33      0          0
1401             150              140              4300.00    0.0240     -3.38      -6.60      0          0
1501             151              150              1000.00    0.0220     -2.56      -3.38      0          0
1511             152              151              1000.00    0.0220     -1.73      -2.56      0          0
1521             153              152              1000.00    0.0220     -0.91      -1.73      0          0
1531             157              153              4000.00    0.0220     7.60       -0.91      0          0
1402             1403             1404             179.20     0.0210     0          0          0          0
2101             213              210              1000.00    0.0190     -2.85      -3.85      0          0
2201             2202             220              950.00     0.0350     0          0          0          0
2261             230              226              200.00     0.0350     1.05       -2.00      0          0
2263             2264             226              750.00     0.0350     0          0          0          0
2301             231              230              279.00     0.0290     2.45       1.05       0          0
1102             1104             110              90.00      0.0250     0          6.41       0          0
1202             1203             1204             90.00      0.0250     0          5.95       0          0
1302             1303             1304             130.00     0.0210     0          4.33       0          0
6341             636              634              85.00      0.0380     -1.00      -3.50      0          0
5105             5106             510              50.00      0.0190     0          0.80       0          0
5203             5204             530              45.00      0.0190     0          0.80       0          0
4301             4302             430              225.00     0.0240     0          0          0          0
5401             370              534              135.00     0.0160     -1.82      -1.96      0          0
6501             510              650              160.00     0.0180     -2.91      -3.00      0          0
4101             4103             410              520.00     0.0350     0          0          0          0
4201             4203             420              360.00     0.0350     0          0          0          0
3101             3102             310              480.00     0.0350     0          0          0          0
3201             3202             320              650.00     0.0350     0          0          0          0
3204             3205             320              570.00     0.0350     0          0          0          0
3301             3302             330              650.00     0.0350     0          0          0          0
3304             3305             330              410.00     0.0350     0          0          0          0
3307             3308             330              100.00     0.0350     0          0          0          0
3401             3402             340              680.00     0.0350     0          0          0          0
3501             3502             350              750.00     0.0350     0          0          0          0
3701             3702             370              1040.00    0.0350     0          0          0          0
3721             3722             372              890.00     0.0350     0          0          0          0
3741             3742             374              820.00     0.0350     0          0          0          0
3768             360              376              120.00     0.0500     1.50       1.39       0          0
3748             340              374              500.00     0.1000     3.45       3.06       0          0
3749             350              374              400.00     0.1000     3.21       3.06       0          0
3727             332              372              270.00     0.0500     1.50       1.38       0          0
5101             5102             5103             10300.00   0.0350     0          0          0          0
5301             5302             5303             320.00     0.0350     0          0          0          0
5304             5305             530              460.00     0.0350     0          0          0          0
6101             6102             610              325.00     0.0350     0          0          0          0
6201             6202             620              1895.00    0.0350     0          0          0          0
6203             6204             620              480.00     0.0350     0          0          0          0
6304             6306             630              285.00     0.0350     0          0          0          0
6321             6323             630              1255.00    0.0350     0          0          0          0
6361             6362             636              435.00     0.0350     0          0          0          0
6401             6402             640              600.00     0.0350     0          0          0          0
6601             6603             660              1490.00    0.0500     0          0          0          0
2521             254              252              3920.00    0.0300     8.00       -0.63      0          0
2506             2507             2508             396.00     0.0290     0          0          0          0
2504             260              250              244.00     0.0140     24.50      -1.00      0          0
2411             250              241              850.00     0.0350     -1.00      -1.50      0          0
2401             241              240              750.00     0.0350     -1.50      -2.00      0          0

[WEIRS]
;;Name           From             To               Type       CrestHt    Qcoeff     Gated    EndCon   EndCoeff   Surcharge
;;-------------- ---------------- ---------------- ---------- ---------- ---------- -------- -------- ---------- ----------
Link_1           ?                ?                TRANSVERSE 5.96       1.840      NO       0        0          YES
MUL35            220              213              TRANSVERSE 2.00       1.840      NO       0        0          YES
MUL37            220              340              TRANSVERSE 6.75       1.840      NO       0        0          YES

[XSECTIONS]
;;Link           Shape        Geom1      Geom2      Geom3      Geom4      Barrels
;;-------------- ------------ ---------- ---------- ---------- ---------- ----------
1001             TRAPEZOIDAL  21.40      200.00     0          0          1
1101             TRAPEZOIDAL  21.95      200.00     0          0          1
1201             TRAPEZOIDAL  22.73      200.00     0          0          1
1301             TRAPEZOIDAL  23.16      200.00     0          0          1
1401             TRAPEZOIDAL  23.84      200.00     0          0          1
1501             TRAPEZOIDAL  24.89      167.30     0          0          1
1511             TRAPEZOIDAL  25.40      134.70     0          0          1
1521             TRAPEZOIDAL  25.91      102.00     0          0          1
1531             TRAPEZOIDAL  26.46      80.00      0          0          1
1402             CIRCULAR     5.00       0          0          0          1
2101             RECT_CLOSED  6.00       10.00      0          0          1
2201             TRAPEZOIDAL  11.30      35.00      0          0          1
2261             TRAPEZOIDAL  10.50      80.00      0          0          1
2263             TRAPEZOIDAL  10.70      70.00      0          0          1
2301             RECT_CLOSED  7.25       12.00      0          0          1
1102             CIRCULAR     5.00       0          0          0          1
1202             CIRCULAR     5.00       0          0          0          1
1302             CIRCULAR     5.00       0          0          0          1
6341             CIRCULAR     2.00       0          0          0          1
5105             RECT_CLOSED  4.00       5.00       0          0          1
5203             RECT_CLOSED  4.00       5.00       0          0          1
4301             RECT_CLOSED  5.00       15.00      0          0          1
5401             CIRCULAR     3.00       0          0          0          1
6501             RECT_CLOSED  4.00       10.00      0          0          1
4101             TRAPEZOIDAL  14.70      40.00      0          0          1
4201             TRAPEZOIDAL  15.00      40.00      0          0          1
3101             TRAPEZOIDAL  14.42      30.00      0          0          1
3201             TRAPEZOIDAL  13.25      5.00       0          0          1
3204             TRAPEZOIDAL  14.96      30.00      0          0          1
3301             TRAPEZOIDAL  13.00      5.00       0          0          1
3304             TRAPEZOIDAL  13.20      5.00       0          0          1
3307             TRAPEZOIDAL  14.55      20.00      0          0          1
3401             TRAPEZOIDAL  13.29      20.00      0          0          1
3501             TRAPEZOIDAL  14.00      20.00      0          0          1
3701             TRAPEZOIDAL  12.02      5.00       0          0          1
3721             TRAPEZOIDAL  11.39      5.00       0          0          1
3741             TRAPEZOIDAL  10.71      5.00       0          0          1
3768             TRAPEZOIDAL  8.00       100.00     0          0          1
3748             TRAPEZOIDAL  8.00       100.00     0          0          1
3749             TRAPEZOIDAL  8.00       100.00     0          0          1
3727             TRAPEZOIDAL  8.00       100.00     0          0          1
5101             TRAPEZOIDAL  14.00      5.00       0          0          1
5301             TRAPEZOIDAL  14.50      5.00       0          0          1
5304             TRAPEZOIDAL  13.50      5.00       0          0          1
6101             TRAPEZOIDAL  15.00      20.00      0          0          1
6201             TRAPEZOIDAL  14.50      10.00      0          0          1
6203             TRAPEZOIDAL  14.50      20.00      0          0          1
6304             TRAPEZOIDAL  14.50      10.00      0          0          1
6321             TRAPEZOIDAL  14.00      10.00      0          0          1
6361             TRAPEZOIDAL  11.50      5.00       0          0          1
6401             TRAPEZOIDAL  14.50      10.00      0          0          1
6601             TRAPEZOIDAL  14.50      5.00       0          0          1
2521             TRAPEZOIDAL  11.00      40.00      0          0          1
2506             RECT_CLOSED  7.00       10.50      0          0          1
2504             CIRCULAR     4.00       0          0          0          1
2411             TRAPEZOIDAL  10.40      40.00      0          0          1
2401             TRAPEZOIDAL  10.40      60.00      0          0          1
Link_1           RECT_OPEN    0          20.00      0          0          
MUL35            RECT_OPEN    0          26.00      0          0          
MUL37            RECT_OPEN    0          300.00     0          0          

[LOSSES]
;;Link           Inlet      Outlet     Average    Flap Gate
;;-------------- ---------- ---------- ---------- ----------
1001             0          0          0          NO
1101             0          0          0          NO
1201             0          0          0          NO
1301             0          0          0          NO
1401             0          0          0          NO
1501             0          0          0          NO
1511             0          0          0          NO
1521             0          0          0          NO
1531             0          0          0          NO
1402             0          0          0          NO
2101             0          0          0          NO
2201             0          0          0          NO
2261             0          0          0          NO
2263             0          0          0          NO
2301             0          0          0          NO
1102             0          0          0          NO
1202             0          0          0          NO
1302             0          0          0          NO
6341             0          0          0          NO
5105             0          0          0          NO
5203             0          0          0          NO
4301             0          0          0          NO
5401             0          0          0          NO
6501             0          0          0          NO
4101             0          0          0          NO
4201             0          0          0          NO
3101             0          0          0          NO
3201             0          0          0          NO
3204             0          0          0          NO
3301             0          0          0          NO
3304             0          0          0          NO
3307             0          0          0          NO
3401             0          0          0          NO
3501             0          0          0          NO
3701             0          0          0          NO
3721             0          0          0          NO
3741             0          0          0          NO
3768             0          0          0          NO
3748             0          0          0          NO
3749             0          0          0          NO
3727             0          0          0          NO
5101             0          0          0          NO
5301             0          0          0          NO
5304             0          0          0          NO
6101             0          0          0          NO
6201             0          0          0          NO
6203             0          0          0          NO
6304             0          0          0          NO
6321             0          0          0          NO
6361             0          0          0          NO
6401             0          0          0          NO
6601             0          0          0          NO
2521             0          0          0          NO
2506             0          0          0          NO
2504             0          0          0          NO
2411             0          0          0          NO
2401             0          0          0          NO

[COORDINATES]
;;Node           X-Coord            Y-Coord
;;-------------- ------------------ ------------------
110              391.84             106.61            
100              391.88             104.99            
120              391.54             111.30            
130              391.39             116.02            
140              391.37             120.02            
150              390.75             125.13            
151              390.79             126.87            
152              390.73             128.01            
153              390.70             129.90            
157              390.79             130.28            
210              392.76             120.15            
213              393.14             122.08            
226              393.08             127.13            
220              393.35             124.03            
230              392.42             128.78            
240              395.30             128.57            
250              399.81             128.94            
231              391.96             130.17            
660              399.62             109.43            
610              392.24             111.86            
410              392.15             116.63            
636              397.09             116.25            
634              398.83             115.32            
560              403.40             114.20            
510              402.27             114.00            
570              403.36             116.80            
530              402.14             116.53            
310              393.21             118.53            
430              393.25             117.14            
370              403.39             119.28            
534              402.82             118.25            
650              401.83             113.23            
420              392.11             117.73            
320              395.96             119.25            
322              397.88             119.90            
330              395.76             121.85            
332              399.17             121.29            
334              394.38             122.26            
340              395.74             124.92            
350              397.88             126.31            
360              403.86             128.53            
372              402.91             122.61            
374              402.17             125.42            
376              404.03             126.94            
540              397.34             117.98            
620              394.00             111.48            
626              394.25             115.76            
630              398.65             111.43            
640              400.70             112.02            
638              395.91             117.60            
254              402.09             131.24            
252              400.48             130.31            
260              402.85             129.79            
241              397.52             128.71            

[MAP]
DIMENSIONS 390.70 104.99 404.03 131.24
Units      None

[REPORT]
INPUT            YES
SUBCATCHMENTS    ALL
NODES            ALL
LINKS            ALL



