;; SWMM5 .inp converted from XPSWMM .xp file
;; Generated by XPSWMM Card Reader
;; Source format: XP_CARD | Original title: HSD CSO STUDY, GRAND CALUMET RIVER BASIN UPDATED MODEL USING SWMM 4.30

[TITLE]
;;Project Title/Notes
HSD CSO STUDY, GRAND CALUMET RIVER BASIN UPDATED MODEL USING SWMM 4.30

[OPTIONS]
FLOW_UNITS           CFS
INFILTRATION         HORTON
FLOW_ROUTING         DYNWAVE
LINK_OFFSETS         DEPTH
MIN_SLOPE            0.0
ALLOW_PONDING        NO
SKIP_STEADY_STATE    NO
ROUTING_STEP         00:00:03
VARIABLE_STEP        0.75
INERTIAL_DAMPING     NONE
NORMAL_FLOW_LIMITED  BOTH
MAX_TRIALS           60

[JUNCTIONS]
;;Name           Elev       MaxDepth   InitDepth  SurDepth   Aponded
;;-------------- ---------- ---------- ---------- ---------- ----------
11299            584.59     0          0          0          0
11298            587.45     0          0          0          0
11204            587.67     0          0          0          0
11227            587.61     0          0          0          0
11212            584.26     0          0          0          0
11214            585.64     0          0          0          0
11233            585.86     0          0          0          0
11216            584.76     0          0          0          0
11217            587.00     0          0          0          0
11219            586.04     0          0          0          0
11220            585.33     0          0          0          0
11221            586.19     0          0          0          0
11222            588.03     0          0          0          0
11223            587.91     0          0          0          0
11228            587.46     0          0          0          0
11297            587.24     0          0          0          0
11230            586.00     0          0          0          0
11234            585.48     0          0          0          0
11236            587.50     0          0          0          0
11225            587.49     0          0          0          0
11226            587.73     0          0          0          0
14280            588.00     0          0          0          0
14281            588.00     0          0          0          0
14282            588.00     0          0          0          0
14283            588.00     0          0          0          0
11606            583.97     0          0          0          0
11607            584.70     0          0          0          0
11496            584.45     0          0          0          0
11608            583.24     0          0          0          0
11610            583.54     0          0          0          0
11612            584.19     0          0          0          0
11619            586.04     0          0          0          0
11614            585.64     0          0          0          0
11621            586.19     0          0          0          0
11617            587.00     0          0          0          0
11495            586.27     0          0          0          0
11620            585.33     0          0          0          0
11622            588.03     0          0          0          0
11623            587.91     0          0          0          0
11494            587.41     0          0          0          0
11626            587.73     0          0          0          0
11625            587.49     0          0          0          0
11630            586.00     0          0          0          0
11631            587.00     0          0          0          0
11697            587.00     0          0          0          0
11636            587.50     0          0          0          0
11698            587.45     0          0          0          0
11699            584.64     0          0          0          0
11800            586.48     0          0          0          0
11810            588.50     0          0          0          0
12281            600.60     0          0          0          0
12202            599.39     0          0          0          0
12282            599.39     0          0          0          0
12203            598.22     0          0          0          0
12283            598.22     0          0          0          0
12204            596.96     0          0          0          0
12284            596.96     0          0          0          0
12205            595.96     0          0          0          0
12285            595.96     0          0          0          0
12206            594.39     0          0          0          0
12286            594.39     0          0          0          0
12208            590.30     0          0          0          0
12220            591.00     0          0          0          0
12215            596.00     0          0          0          0
12217            590.12     0          0          0          0
12216            591.86     0          0          0          0
12219            591.86     0          0          0          0
12225            590.02     0          0          0          0
12226            590.27     0          0          0          0
12227            590.18     0          0          0          0
12224            590.34     0          0          0          0
12299            591.86     0          0          0          0
13284            590.00     0          0          0          0
13282            592.00     0          0          0          0
13281            592.00     0          0          0          0
13283            590.00     0          0          0          0
12800            587.00     0          0          0          0
12601            600.53     0          0          0          0
12602            599.60     0          0          0          0
12603            598.18     0          0          0          0
12604            595.99     0          0          0          0
12605            595.82     0          0          0          0
12606            594.20     0          0          0          0
12611            593.06     0          0          0          0
12608            590.41     0          0          0          0
12404            590.52     0          0          0          0
12609            589.76     0          0          0          0
12405            590.99     0          0          0          0
12407            592.71     0          0          0          0
12616            591.84     0          0          0          0
12402            592.83     0          0          0          0
12624            591.00     0          0          0          0
12625            590.22     0          0          0          0
12403            591.00     0          0          0          0
12626            590.00     0          0          0          0
12627            589.86     0          0          0          0
12401            591.04     0          0          0          0
12406            591.00     0          0          0          0
12271            601.00     0          0          0          0
12272            600.00     0          0          0          0
12273            599.00     0          0          0          0
12274            597.00     0          0          0          0
12275            596.00     0          0          0          0
12276            595.00     0          0          0          0
12277            594.00     0          0          0          0
12278            591.00     0          0          0          0
12279            590.00     0          0          0          0
12291            591.00     0          0          0          0
12292            591.00     0          0          0          0
12293            591.00     0          0          0          0
12294            591.00     0          0          0          0
13293            589.49     0          0          0          0
13295            587.76     0          0          0          0
13288            591.61     0          0          0          0
13208            592.00     0          0          0          0
13299            588.00     0          0          0          0
13211            589.00     0          0          0          0
13298            589.00     0          0          0          0
13285            595.90     0          0          0          0
13291            591.30     0          0          0          0
13286            591.00     0          0          0          0
13292            588.91     0          0          0          0
13297            588.73     0          0          0          0
13275            608.60     0          0          0          0
13274            595.34     0          0          0          0
13273            590.24     0          0          0          0
14297            586.21     0          0          0          0
14207            586.43     0          0          0          0
14296            587.00     0          0          0          0
14295            586.85     0          0          0          0
14215            625.00     0          0          0          0
14293            587.00     0          0          0          0
14294            585.05     0          0          0          0
15202            583.50     0          0          0          0
15210            582.97     0          0          0          0
15204            583.75     0          0          0          0
15203            585.19     0          0          0          0
15207            583.23     0          0          0          0
15206            584.02     0          0          0          0
15297            640.00     0          0          0          0
15990            584.50     0          0          0          0
2204             589.66     0          0          0          0
2205             590.15     0          0          0          0
2206             589.41     0          0          0          0
2227             589.16     0          0          0          0
2209             597.00     0          0          0          0
2211             596.00     0          0          0          0
2214             596.78     0          0          0          0
2215             594.49     0          0          0          0
2216             595.04     0          0          0          0
2219             594.57     0          0          0          0
2223             594.26     0          0          0          0
2225             593.00     0          0          0          0
2451             595.64     0          0          0          0
2409             592.48     0          0          0          0
2458             596.82     0          0          0          0
2410             584.93     0          0          0          0
2411             590.44     0          0          0          0
2616             595.04     0          0          0          0
2618             592.00     0          0          0          0
2408             593.73     0          0          0          0
2407             592.38     0          0          0          0
2621             593.94     0          0          0          0
2617             592.00     0          0          0          0
2625             593.00     0          0          0          0
2412             590.00     0          0          0          0
2814             590.00     0          0          0          0
2898             582.73     0          0          0          0
2829             750.00     0          0          0          0
2813             590.00     0          0          0          0
2815             590.00     0          0          0          0
2899             582.73     0          0          0          0
10202            595.75     0          0          0          0
10204            595.00     0          0          0          0
10206            594.28     0          0          0          0
10208            594.68     0          0          0          0
10210            593.42     0          0          0          0
10212            594.56     0          0          0          0
10214            596.44     0          0          0          0
10216            595.30     0          0          0          0
10218            595.30     0          0          0          0
10220            595.29     0          0          0          0
10268            597.00     0          0          0          0
10222            595.00     0          0          0          0
10223            599.58     0          0          0          0
10226            595.16     0          0          0          0
10228            593.37     0          0          0          0
10230            593.13     0          0          0          0
10269            598.00     0          0          0          0
10262            597.85     0          0          0          0
10299            598.35     0          0          0          0
10201            595.37     0          0          0          0
10203            594.74     0          0          0          0
10205            594.01     0          0          0          0
10207            593.92     0          0          0          0
10209            593.49     0          0          0          0
10213            596.67     0          0          0          0
10277            596.65     0          0          0          0
10217            593.88     0          0          0          0
10219            594.52     0          0          0          0
10221            593.24     0          0          0          0
10225            595.03     0          0          0          0
10227            594.04     0          0          0          0
10229            592.96     0          0          0          0
10231            593.09     0          0          0          0
10261            596.70     0          0          0          0
10293            608.00     0          0          0          0
10264            593.03     0          0          0          0
10601            595.35     0          0          0          0
10603            594.74     0          0          0          0
10605            594.01     0          0          0          0
10607            593.92     0          0          0          0
10609            593.49     0          0          0          0
10611            593.72     0          0          0          0
10613            594.00     0          0          0          0
10414            594.35     0          0          0          0
10621            593.24     0          0          0          0
10422            593.64     0          0          0          0
10423            595.69     0          0          0          0
10424            593.49     0          0          0          0
10625            595.03     0          0          0          0
10627            594.04     0          0          0          0
10629            592.96     0          0          0          0
10631            593.09     0          0          0          0
10661            596.74     0          0          0          0
10619            594.52     0          0          0          0
10617            593.88     0          0          0          0
10418            592.65     0          0          0          0
10615            592.89     0          0          0          0
10401            599.35     0          0          0          0
10415            596.65     0          0          0          0
10483            597.49     0          0          0          0
10800            602.14     0          0          0          0
1202             612.10     0          0          0          0
1203             609.47     0          0          0          0
1205             609.12     0          0          0          0
1206             602.43     0          0          0          0
1207             606.00     0          0          0          0
1209             599.92     0          0          0          0
1212             598.57     0          0          0          0
1213             597.65     0          0          0          0
1214             596.51     0          0          0          0
1216             599.08     0          0          0          0
1217             591.79     0          0          0          0
1221             597.54     0          0          0          0
1223             595.79     0          0          0          0
1224             596.12     0          0          0          0
1225             597.95     0          0          0          0
1222             603.76     0          0          0          0
3227             598.50     0          0          0          0
1605             609.12     0          0          0          0
1603             609.88     0          0          0          0
1602             611.41     0          0          0          0
1607             606.00     0          0          0          0
1404             603.00     0          0          0          0
1405             599.00     0          0          0          0
1414             592.93     0          0          0          0
1606             602.40     0          0          0          0
1407             602.21     0          0          0          0
1409             600.00     0          0          0          0
1609             600.27     0          0          0          0
1612             598.50     0          0          0          0
1613             597.60     0          0          0          0
1616             599.08     0          0          0          0
1614             595.00     0          0          0          0
1617             591.79     0          0          0          0
1819             596.25     0          0          0          0
1899             592.00     0          0          0          0
4204             595.44     0          0          0          0
4221             597.61     0          0          0          0
4222             597.61     0          0          0          0
4604             595.44     0          0          0          0
4898             592.43     0          0          0          0
4806             600.44     0          0          0          0
4899             592.43     0          0          0          0
3200             596.00     0          0          0          0
3201             596.72     0          0          0          0
3204             593.55     0          0          0          0
3212             595.93     0          0          0          0
3217             595.19     0          0          0          0
3213             595.00     0          0          0          0
3214             595.05     0          0          0          0
3216             595.09     0          0          0          0
3612             595.93     0          0          0          0
3616             595.09     0          0          0          0
3801             600.40     0          0          0          0
3898             592.00     0          0          0          0
3899             592.00     0          0          0          0
3221             596.39     0          0          0          0
3223             596.69     0          0          0          0
3226             602.34     0          0          0          0
3230             597.69     0          0          0          0
3232             597.61     0          0          0          0
3234             600.41     0          0          0          0
9213             600.75     0          0          0          0
8260             599.09     0          0          0          0
3222             599.61     0          0          0          0
3224             604.63     0          0          0          0
3229             602.93     0          0          0          0
3228             600.99     0          0          0          0
3233             600.36     0          0          0          0
3235             600.36     0          0          0          0
9214             604.50     0          0          0          0
9212             600.90     0          0          0          0
9218             601.59     0          0          0          0
9299             594.81     0          0          0          0
9219             598.18     0          0          0          0
9298             599.25     0          0          0          0
9618             601.59     0          0          0          0
9402             597.00     0          0          0          0
9401             596.10     0          0          0          0
9403             594.90     0          0          0          0
9602             594.81     0          0          0          0
9600             599.25     0          0          0          0
9801             597.78     0          0          0          0
9802             594.40     0          0          0          0
9803             592.68     0          0          0          0
5250             620.00     0          0          0          0
5251             618.20     0          0          0          0
5253             607.00     0          0          0          0
5254             606.00     0          0          0          0
5255             605.00     0          0          0          0
5257             601.69     0          0          0          0
5258             597.65     0          0          0          0
5259             596.56     0          0          0          0
5203             600.28     0          0          0          0
5201             596.02     0          0          0          0
5202             594.43     0          0          0          0
5205             600.33     0          0          0          0
5207             600.33     0          0          0          0
6256             597.58     0          0          0          0
5804             600.33     0          0          0          0
5899             600.33     0          0          0          0
6254             594.80     0          0          0          0
6654             594.80     0          0          0          0
6854             598.90     0          0          0          0
6899             592.23     0          0          0          0
7261             604.00     0          0          0          0
7201             603.80     0          0          0          0
7207             603.50     0          0          0          0
7202             604.94     0          0          0          0
7208             603.44     0          0          0          0
7263             606.00     0          0          0          0
7203             605.13     0          0          0          0
7209             602.74     0          0          0          0
7264             607.00     0          0          0          0
7204             606.05     0          0          0          0
7210             603.37     0          0          0          0
7265             608.00     0          0          0          0
7205             607.14     0          0          0          0
7212             603.95     0          0          0          0
7266             609.00     0          0          0          0
7206             608.04     0          0          0          0
7213             603.57     0          0          0          0
7215             602.00     0          0          0          0
7211             604.05     0          0          0          0
7274             604.00     0          0          0          0
7214             603.84     0          0          0          0
7216             600.34     0          0          0          0
7276             601.00     0          0          0          0
7218             601.80     0          0          0          0
7277             602.00     0          0          0          0
7217             601.98     0          0          0          0
7220             601.80     0          0          0          0
7279             602.00     0          0          0          0
7219             601.42     0          0          0          0
7222             601.00     0          0          0          0
7281             602.00     0          0          0          0
7221             601.24     0          0          0          0
7224             599.67     0          0          0          0
7283             600.00     0          0          0          0
7223             599.28     0          0          0          0
7226             599.85     0          0          0          0
7285             600.00     0          0          0          0
7225             599.72     0          0          0          0
7227             598.64     0          0          0          0
7229             598.68     0          0          0          0
7230             595.39     0          0          0          0
7232             596.02     0          0          0          0
7235             596.37     0          0          0          0
7233             594.90     0          0          0          0
7234             595.97     0          0          0          0
8257             596.51     0          0          0          0
7601             603.80     0          0          0          0
7602             604.94     0          0          0          0
7603             605.13     0          0          0          0
7604             606.05     0          0          0          0
7407             605.60     0          0          0          0
7606             608.04     0          0          0          0
7605             607.14     0          0          0          0
7611             605.05     0          0          0          0
7614             603.84     0          0          0          0
7416             601.00     0          0          0          0
7616             600.34     0          0          0          0
7617             601.98     0          0          0          0
7619             601.76     0          0          0          0
7621             601.34     0          0          0          0
7421             601.63     0          0          0          0
7623             599.31     0          0          0          0
7625             599.62     0          0          0          0
7627             598.64     0          0          0          0
7630             595.39     0          0          0          0
7632             596.02     0          0          0          0
7634             595.97     0          0          0          0
7633             594.90     0          0          0          0
7733             602.86     0          0          0          0
7899             599.82     0          0          0          0
8258             597.37     0          0          0          0
8857             598.86     0          0          0          0
8899             594.84     0          0          0          0
10256            640.00     0          0          0          0
10234            611.16     0          0          0          0
10236            610.96     0          0          0          0
10238            612.04     0          0          0          0
10239            615.00     0          0          0          0
10240            615.00     0          0          0          0
10242            613.67     0          0          0          0
10244            613.95     0          0          0          0
10246            613.00     0          0          0          0
10248            613.90     0          0          0          0
10254            614.08     0          0          0          0
10252            616.30     0          0          0          0
10253            618.36     0          0          0          0
10286            615.47     0          0          0          0
10233            611.47     0          0          0          0
10287            617.00     0          0          0          0
10235            610.52     0          0          0          0
10288            616.93     0          0          0          0
10237            612.93     0          0          0          0
10289            616.89     0          0          0          0
10241            612.89     0          0          0          0
10290            617.54     0          0          0          0
10243            613.54     0          0          0          0
10291            616.90     0          0          0          0
10245            612.90     0          0          0          0
10292            616.56     0          0          0          0
10247            612.56     0          0          0          0
10294            619.00     0          0          0          0
10295            614.00     0          0          0          0
10633            611.47     0          0          0          0
10801            615.00     0          0          0          0
10635            610.52     0          0          0          0
10802            613.00     0          0          0          0
10637            612.93     0          0          0          0
10803            615.00     0          0          0          0
10641            612.89     0          0          0          0
10804            615.00     0          0          0          0
10643            613.54     0          0          0          0
10805            615.00     0          0          0          0
10645            612.90     0          0          0          0
10806            615.00     0          0          0          0
10647            612.56     0          0          0          0
10807            615.00     0          0          0          0
15800            620.00     0          0          0          0

[STORAGE]
;;Name           Elev       MaxDepth   InitDepth  Shape      Curve/Params
;;-------------- ---------- ---------- ---------- ---------- ----------
11201            586.22     0          0          FUNCTIONAL 1800.00 0          0
11202            584.89     0          0          FUNCTIONAL 0 0          0
11203            586.93     0          0          FUNCTIONAL 0 0          0
11218            587.94     0          0          FUNCTIONAL 0 0          0
11205            588.24     0          0          FUNCTIONAL 0 0          0
11206            583.97     0          0          FUNCTIONAL 0 0          0