;; SWMM5 .inp converted from XPSWMM .xp file
;; Generated by XPSWMM Card Reader
;; Source format: XP_CARD | Original title: CSO 013 and 014

[TITLE]
;;Project Title/Notes
CSO 013 and 014

[OPTIONS]
FLOW_UNITS           CFS
INFILTRATION         HORTON
FLOW_ROUTING         DYNWAVE
LINK_OFFSETS         DEPTH
MIN_SLOPE            0.0
ALLOW_PONDING        NO
SKIP_STEADY_STATE    NO
ROUTING_STEP         00:00:10
VARIABLE_STEP        0.75
INERTIAL_DAMPING     PARTIAL
NORMAL_FLOW_LIMITED  BOTH
MAX_TRIALS           50

[JUNCTIONS]
;;Name           Elev       MaxDepth   InitDepth  SurDepth   Aponded
;;-------------- ---------- ---------- ---------- ---------- ----------
401              585.00     0          0          0          0
400              589.00     0          0          0          0
402              588.00     0          0          0          0
403              588.00     0          0          0          0
404              588.00     0          0          0          0
405              593.00     0          0          0          0
406              593.50     0          0          0          0
407              595.00     0          0          0          0
408              593.00     0          0          0          0
409              594.00     0          0          0          0
410              595.00     0          0          0          0
411              596.00     0          0          0          0
412              597.00     0          0          0          0
413              597.00     0          0          0          0
433              592.00     0          0          0          0
434              594.00     0          0          0          0
435              595.00     0          0          0          0
432              590.00     0          0          0          0
431              588.00     0          0          0          0
436              596.00     0          0          0          0
437              601.00     0          0          0          0
438              600.00     0          0          0          0
439              600.00     0          0          0          0
440              599.40     0          0          0          0
441              600.00     0          0          0          0
448              600.00     0          0          0          0
442              598.00     0          0          0          0
443              600.00     0          0          0          0
444              598.00     0          0          0          0
445              596.00     0          0          0          0
446              596.00     0          0          0          0
449              600.00     0          0          0          0
450              600.00     0          0          0          0
451              597.00     0          0          0          0
452              597.00     0          0          0          0
453              597.00     0          0          0          0
447              597.00     0          0          0          0
454              597.00     0          0          0          0
457              605.00     0          0          0          0
456              604.00     0          0          0          0
455              602.00     0          0          0          0
459              600.00     0          0          0          0
458              600.00     0          0          0          0
461              601.00     0          0          0          0
460              600.00     0          0          0          0
462              600.00     0          0          0          0
463              603.00     0          0          0          0
490              600.00     0          0          0          0
495              602.00     0          0          0          0
494              602.00     0          0          0          0
493              602.00     0          0          0          0
492              602.00     0          0          0          0
491              602.00     0          0          0          0
489              602.00     0          0          0          0
464              600.00     0          0          0          0
465              602.00     0          0          0          0
483              603.00     0          0          0          0
468              604.00     0          0          0          0
466              601.00     0          0          0          0
486              600.00     0          0          0          0
485              600.00     0          0          0          0
484              600.00     0          0          0          0
414              598.00     0          0          0          0
428              600.00     0          0          0          0
427              600.00     0          0          0          0
426              600.00     0          0          0          0
425              600.00     0          0          0          0
430              600.00     0          0          0          0
429              597.00     0          0          0          0
323              605.00     0          0          0          0
322              604.00     0          0          0          0
321              604.00     0          0          0          0
313              600.00     0          0          0          0
314              600.00     0          0          0          0
315              606.50     0          0          0          0
467              603.00     0          0          0          0
488              605.00     0          0          0          0
487              605.00     0          0          0          0
324              604.00     0          0          0          0
472              606.00     0          0          0          0
471              605.00     0          0          0          0
470              605.00     0          0          0          0
469              605.00     0          0          0          0
474              609.00     0          0          0          0
473              607.00     0          0          0          0
477              608.00     0          0          0          0
476              608.00     0          0          0          0
475              608.00     0          0          0          0
481              618.00     0          0          0          0
480              610.00     0          0          0          0
479              608.00     0          0          0          0
478              608.00     0          0          0          0
482              618.00     0          0          0          0
320              612.00     0          0          0          0
311              604.00     0          0          0          0
312              599.50     0          0          0          0
310              600.50     0          0          0          0
308              601.00     0          0          0          0
307              601.00     0          0          0          0
306              597.00     0          0          0          0
305              597.00     0          0          0          0
304              605.00     0          0          0          0
303              605.00     0          0          0          0
302              601.00     0          0          0          0
309              600.50     0          0          0          0
301              593.00     0          0          0          0
300              593.00     0          0          0          0
417              593.00     0          0          0          0
416              592.00     0          0          0          0
415              605.00     0          0          0          0
418              605.00     0          0          0          0
424              604.00     0          0          0          0
423              603.00     0          0          0          0
422              602.00     0          0          0          0
421              603.00     0          0          0          0
420              604.00     0          0          0          0
419              601.00     0          0          0          0
318              600.50     0          0          0          0
317              600.00     0          0          0          0
316              601.50     0          0          0          0
913              603.50     0          0          0          0
319              602.00     0          0          0          0
914              603.00     0          0          0          0
912              600.00     0          0          0          0
911              603.00     0          0          0          0
910              601.50     0          0          0          0
909              602.00     0          0          0          0
915              599.00     0          0          0          0
908              603.50     0          0          0          0
907              605.20     0          0          0          0
906              607.50     0          0          0          0
905              609.00     0          0          0          0
904              608.50     0          0          0          0
903              612.50     0          0          0          0
902              608.00     0          0          0          0
901              608.00     0          0          0          0
900              596.00     0          0          0          0
504              589.00     0          0          0          0
506              589.00     0          0          0          0
508              593.00     0          0          0          0
510              593.00     0          0          0          0
512              596.00     0          0          0          0
514              596.00     0          0          0          0
497              606.00     0          0          0          0
496              605.00     0          0          0          0
524              589.00     0          0          0          0
526              585.00     0          0          0          0
536              588.00     0          0          0          0
537              588.00     0          0          0          0
544              590.00     0          0          0          0
546              597.00     0          0          0          0

[CONDUITS]
;;Name           From             To               Length     Roughness  InOffset   OutOffset  InitFlow   MaxFlow
;;-------------- ---------------- ---------------- ---------- ---------- ---------- ---------- ---------- ----------
1400             401              400              864.00     0.0130     568.94     568.47     0          0
1401             402              401              568.00     0.0130     573.28     570.69     0          0
1402             403              536              600.00     0.0130     574.58     574.10     0          0
1403             404              403              600.00     0.0130     575.06     574.58     0          0
1404             405              404              565.00     0.0130     575.50     575.06     0          0
1405             406              405              177.00     0.0130     577.16     576.79     0          0
1406             407              406              245.00     0.0130     577.69     577.16     0          0
1407             408              407              400.00     0.0130     578.54     577.69     0          0
1408             409              408              320.00     0.0130     579.23     578.54     0          0
1409             410              409              265.00     0.0130     579.79     579.23     0          0
1410             411              410              322.00     0.0130     580.48     579.79     0          0
1411             412              411              570.00     0.0130     581.43     580.48     0          0
1412             413              412              150.00     0.0130     581.59     581.43     0          0
1433             434              433              654.00     0.0130     571.59     571.12     0          0
1434             435              434              614.00     0.0130     572.43     572.02     0          0
1432             433              432              604.00     0.0130     571.12     570.80     0          0
1431             432              431              587.00     0.0130     570.80     569.30     0          0
1497             431              401              620.00     0.0130     569.30     568.94     0          0
1435             436              435              611.00     0.0130     572.84     572.43     0          0
1436             437              436              590.00     0.0130     573.27     572.84     0          0
1437             438              437              500.00     0.0130     575.77     575.30     0          0
1438             439              438              500.00     0.0130     576.27     575.77     0          0
1439             440              439              403.00     0.0130     576.68     576.72     0          0
1440             441              440              123.00     0.0130     577.59     577.48     0          0
1448             448              441              70.00      0.0130     582.76     581.50     0          0
1441             442              441              770.00     0.0130     578.36     577.59     0          0
1442             443              442              374.00     0.0130     579.52     579.17     0          0
1443             444              443              270.00     0.0130     580.19     579.92     0          0
1444             445              444              270.00     0.0130     580.46     580.19     0          0
1445             446              445              267.00     0.0130     582.09     581.66     0          0
1449             449              448              325.00     0.0130     583.86     582.76     0          0
1450             450              449              360.00     0.0130     584.58     583.86     0          0
1451             451              443              400.00     0.0130     583.01     582.13     0          0
1452             452              451              400.00     0.0130     583.89     583.01     0          0
1453             453              452              400.00     0.0130     584.61     583.89     0          0
1446             447              446              98.00      0.0130     582.27     582.09     0          0
1454             454              453              387.00     0.0130     585.51     584.81     0          0
1456             457              456              547.00     0.0130     577.10     575.03     0          0
1455             456              455              550.00     0.0130     575.03     574.53     0          0
1496             455              437              540.00     0.0130     574.53     574.08     0          0
1457             458              457              728.00     0.0130     577.33     577.10     0          0
1458             459              458              350.00     0.0130     578.14     577.33     0          0
1460             461              460              593.00     0.0130     579.64     579.01     0          0
1459             460              459              270.00     0.0130     579.01     578.66     0          0
1461             462              461              876.00     0.0130     580.48     579.64     0          0
1462             463              462              995.00     0.0130     581.51     580.48     0          0
1490             490              489              280.00     0.0130     585.29     584.39     0          0
1495             495              494              320.00     0.0130     589.27     588.25     0          0
1494             494              493              245.00     0.0130     587.75     587.16     0          0
1493             493              492              250.00     0.0130     587.16     586.56     0          0
1492             492              491              100.00     0.0130     586.56     586.20     0          0
1491             491              490              115.00     0.0130     586.20     585.79     0          0
1463             464              463              693.00     0.0130     582.18     581.46     0          0
1464             465              464              574.00     0.0130     583.21     582.68     0          0
1467             468              467              545.00     0.0130     584.67     584.16     0          0
1465             466              465              710.00     0.0130     583.96     583.21     0          0
1486             486              485              295.00     0.0130     584.47     584.00     0          0
1485             485              484              300.00     0.0130     584.00     583.53     0          0
1484             484              483              250.00     0.0130     583.27     582.92     0          0
1413             414              413              930.00     0.0130     582.70     581.59     0          0
1427             428              427              540.00     0.0130     587.11     586.13     0          0
1426             427              426              447.00     0.0130     585.73     584.92     0          0
1425             426              425              480.00     0.0130     584.92     584.06     0          0
1414             425              414              535.00     0.0130     584.06     583.10     0          0
1429             430              429              350.00     0.0130     589.24     588.40     0          0
1428             429              428              350.00     0.0130     588.00     587.51     0          0
1323             324              323              436.00     0.0130     586.87     586.57     0          0
1322             323              322              691.00     0.0130     586.57     585.97     0          0
1321             322              321              442.00     0.0130     585.57     585.15     0          0
1313             314              313              130.00     0.0130     582.00     581.87     0          0
1314             315              314              450.00     0.0130     582.59     582.00     0          0
1320             321              320              711.00     0.0130     585.15     584.36     0          0
1466             467              466              200.00     0.0130     584.16     583.96     0          0
1488             488              487              340.00     0.0130     590.19     589.60     0          0
1487             487              467              320.00     0.0130     589.60     588.04     0          0
1399             324              468              20.00      0.0130     586.87     586.30     0          0
1471             472              471              663.00     0.0130     587.11     586.39     0          0
1470             471              470              634.00     0.0130     586.39     585.81     0          0
1469             470              469              165.00     0.0130     585.30     585.15     0          0
1468             469              468              480.00     0.0130     585.15     584.67     0          0
1473             474              473              685.00     0.0130     589.41     588.73     0          0
1472             473              472              730.00     0.0130     588.73     588.10     0          0
1476             477              476              475.00     0.0130     593.86     592.62     0          0
1475             476              475              340.00     0.0130     592.62     591.74     0          0
1474             475              474              510.00     0.0130     591.74     590.41     0          0
1480             481              480              515.00     0.0130     599.75     598.31     0          0
1479             480              479              445.00     0.0130     598.06     596.81     0          0
1478             479              478              445.00     0.0130     596.56     595.31     0          0
1477             478              477              430.00     0.0130     595.31     594.11     0          0
1481             482              481              400.00     0.0130     600.96     600.00     0          0
1319             320              315              562.00     0.0130     584.36     583.79     0          0
1312             313              312              520.00     0.0130     581.87     581.36     0          0
1311             312              311              480.00     0.0130     581.36     580.88     0          0
1310             311              310              703.00     0.0130     580.88     579.83     0          0
1309             310              309              402.00     0.0130     579.83     579.24     0          0
1307             308              307              217.00     0.0130     579.19     578.87     0          0
1306             307              306              910.00     0.0130     578.87     577.54     0          0
1305             306              305              514.00     0.0130     577.54     576.77     0          0
1304             305              304              560.00     0.0130     576.77     575.90     0          0
1303             304              303              93.00      0.0130     573.50     573.33     0          0
1302             303              302              612.00     0.0130     573.33     572.36     0          0
1308             309              308              26.00      0.0130     579.24     579.19     0          0
1301             302              301              760.00     0.0130     572.36     571.13     0          0
1300             301              300              828.00     0.0130     571.13     569.80     0          0
1416             417              416              190.00     0.0140     580.43     580.16     0          0
1498             416              415              635.00     0.0130     579.76     579.00     0          0
1499             415              405              1003.00    0.0130     577.80     576.62     0          0
1415             418              415              370.00     0.0130     580.54     579.80     0          0
1423             424              423              425.00     0.0130     585.90     584.71     0          0
1422             423              422              353.00     0.0130     583.51     583.02     0          0
1421             422              421              350.00     0.0130     583.02     582.53     0          0
1420             421              420              350.00     0.0130     582.53     582.04     0          0
1419             420              419              375.00     0.0130     582.04     581.29     0          0
1418             419              418              375.00     0.0130     581.29     580.54     0          0
1317             318              317              188.00     0.0130     587.07     586.78     0          0
1316             317              316              560.00     0.0130     586.78     585.90     0          0
1315             316              315              834.00     0.0130     585.90     584.59     0          0
1326             913              319              605.00     0.0130     590.66     589.80     0          0
1318             319              318              718.00     0.0130     588.20     587.07     0          0
0913             914              913              412.00     0.0130     591.28     590.66     0          0
0912             913              912              412.00     0.0130     590.66     590.04     0          0
0911             912              911              465.00     0.0130     589.64     588.94     0          0
0910             911              910              465.00     0.0130     588.94     587.72     0          0
0909             910              909              110.00     0.0130     587.72     587.56     0          0
0914             915              914              413.00     0.0130     591.90     591.28     0          0
0908             909              908              135.00     0.0130     587.56     587.36     0          0
0907             908              907              330.00     0.0130     587.36     586.86     0          0
0906             907              906              480.00     0.0130     586.46     585.88     0          0
0905             906              905              470.00     0.0130     585.88     585.32     0          0
0904             905              904              445.00     0.0130     585.08     584.54     0          0
0903             904              903              560.00     0.0130     584.54     583.87     0          0
0902             903              902              629.00     0.0130     583.87     583.12     0          0
0901             902              901              450.00     0.0130     582.72     582.18     0          0
0900             901              900              563.00     0.0130     582.18     581.33     0          0
1397             497              496              340.00     0.0130     590.75     590.14     0          0
1396             496              469              320.00     0.0130     590.14     585.56     0          0
1489             489              463              200.00     0.0130     584.39     583.75     0          0
1483             483              460              275.00     0.0130     582.92     582.00     0          0
525              ?                ?                532.00     0.0130     567.69     568.15     0          0
527              ?                ?                515.00     0.0130     568.15     568.60     0          0
538              ?                ?                600.00     0.0130     574.10     573.62     0          0
539              ?                ?                600.00     0.0130     573.62     573.28     0          0
545              ?                ?                861.00     0.0130     569.80     570.80     0          0
1417             546              417              1025.00    0.0130     581.59     580.43     0          0

[ORIFICES]
;;Name           From             To               Type       Offset     Qcoeff     Gated    CloseTime
;;-------------- ---------------- ---------------- ---------- ---------- ---------- -------- ----------
505              ?                ?                SIDE       0          0.650      NO       0
509              ?                ?                SIDE       0          0.650      NO       0
513              ?                ?                SIDE       0          0.650      NO       0

[WEIRS]
;;Name           From             To               Type       CrestHt    Qcoeff     Gated    EndCon   EndCoeff   Surcharge
;;-------------- ---------------- ---------------- ---------- ---------- ---------- -------- -------- ---------- ----------
507              ?                ?                TRANSVERSE 576.10     1.840      NO       0        0          YES
511              ?                ?                TRANSVERSE 571.72     1.840      NO       0        0          YES
515              ?                ?                TRANSVERSE 585.08     1.840      NO       0        0          YES
OLD 5 FT         ?                ?                TRANSVERSE 585.09     1.840      NO       0        0          YES

[XSECTIONS]
;;Link           Shape        Geom1      Geom2      Geom3      Geom4      Barrels
;;-------------- ------------ ---------- ---------- ---------- ---------- ----------
1400             CIRCULAR     11.50      0          0          0          1
1401             CIRCULAR     8.00       0          0          0          1
1402             CIRCULAR     8.00       0          0          0          1
1403             CIRCULAR     8.00       0          0          0          1
1404             CIRCULAR     8.00       0          0          0          1
1405             CIRCULAR     6.00       0          0          0          1
1406             CIRCULAR     6.00       0          0          0          1
1407             CIRCULAR     6.00       0          0          0          1
1408             CIRCULAR     6.00       0          0          0          1
1409             CIRCULAR     6.00       0          0          0          1
1410             CIRCULAR     6.00       0          0          0          1
1411             CIRCULAR     6.00       0          0          0          1
1412             CIRCULAR     6.00       0          0          0          1
1433             CIRCULAR     10.50      0          0          0          1
1434             CIRCULAR     10.00      0          0          0          1
1432             CIRCULAR     10.50      0          0          0          1
1431             CIRCULAR     10.50      0          0          0          1
1497             CIRCULAR     10.50      0          0          0          1
1435             CIRCULAR     10.00      0          0          0          1
1436             CIRCULAR     10.00      0          0          0          1
1437             CIRCULAR     7.50       0          0          0          1
1438             CIRCULAR     7.50       0          0          0          1
1439             CIRCULAR     7.50       0          0          0          1
1440             CIRCULAR     6.50       0          0          0          1
1448             CIRCULAR     2.50       0          0          0          1
1441             CIRCULAR     6.50       0          0          0          1
1442             CIRCULAR     5.50       0          0          0          1
1443             CIRCULAR     5.00       0          0          0          1
1444             CIRCULAR     5.00       0          0          0          1
1445             CIRCULAR     3.50       0          0          0          1
1449             CIRCULAR     2.50       0          0          0          1
1450             CIRCULAR     2.50       0          0          0          1
1451             CIRCULAR     2.50       0          0          0          1
1452             CIRCULAR     2.50       0          0          0          1