;; SWMM5 .inp converted from XPSWMM .xp file
;; Generated by XPSWMM Card Reader
;; Source format: XP_CARD | Original title: AREA ABF

[TITLE]
;;Project Title/Notes
AREA ABF

[OPTIONS]
FLOW_UNITS           CFS
INFILTRATION         HORTON
FLOW_ROUTING         DYNWAVE
LINK_OFFSETS         DEPTH
MIN_SLOPE            0.0
ALLOW_PONDING        NO
SKIP_STEADY_STATE    NO
ROUTING_STEP         00:00:60
VARIABLE_STEP        0.75
INERTIAL_DAMPING     PARTIAL
NORMAL_FLOW_LIMITED  BOTH
MAX_TRIALS           50
HEAD_TOLERANCE       0.0033

[JUNCTIONS]
;;Name           Elev       MaxDepth   InitDepth  SurDepth   Aponded
;;-------------- ---------- ---------- ---------- ---------- ----------
929              26.43      0          0          0          0
8559B            22.78      0          0          0          0
8917B            22.65      0          0          0          0
8589             27.00      0          0          0          0
8609             29.00      0          0          0          0
8619             29.80      0          0          0          0
8629             30.00      0          0          0          0
8649             30.60      0          0          0          0
8659             29.25      0          0          0          0
8669             32.00      0          0          0          0
17               31.00      0          0          0          0
8019             20.63      0          0          0          0
4989             25.43      0          0          0          0
3549             23.73      0          0          0          0
3705             21.23      0          0          0          0
749              30.13      0          0          0          0
8439A            22.83      0          0          0          0
8439B            22.83      0          0          0          0
8399A            20.63      0          0          0          0
8419A            19.83      0          0          0          0
8379A            21.43      0          0          0          0
2279A            28.73      0          0          0          0
2299A            27.83      0          0          0          0
8459B            22.83      0          0          0          0
8459A            22.83      0          0          0          0
959A             25.13      0          0          0          0
1119A            27.23      0          0          0          0
419A             27.93      0          0          0          0
6399A            23.13      0          0          0          0
2829A            21.43      0          0          0          0
8917             19.43      0          0          0          0
8559             19.43      0          0          0          0
6389A            25.93      0          0          0          0
6349A            25.83      0          0          0          0
6329A            25.93      0          0          0          0
6259A            25.93      0          0          0          0
6239A            25.43      0          0          0          0
6339A            26.63      0          0          0          0
6169A            29.13      0          0          0          0

[STORAGE]
;;Name           Elev       MaxDepth   InitDepth  Shape      Curve/Params
;;-------------- ---------- ---------- ---------- ---------- ----------
99               32.75      -0.52      0          FUNCTIONAL 0 0          0
109              32.80      -0.67      0          FUNCTIONAL 0 0          0
119              33.00      -0.77      0          FUNCTIONAL 0 0          0
129              33.00      -0.77      0          FUNCTIONAL 0 0          0
139              33.00      -0.67      0          FUNCTIONAL 0 0          0
149              31.23      0.30       0          FUNCTIONAL 0 0          0
159              30.30      -0.37      0          FUNCTIONAL 0 0          0
169              29.20      -0.07      0          FUNCTIONAL 0 0          0
179              28.30      -0.07      0          FUNCTIONAL 0 0          0
329              27.33      -0.10      0          FUNCTIONAL 0 0          0
199              27.30      0.03       0          FUNCTIONAL 0 0          0
209              27.50      -0.47      0          FUNCTIONAL 0 0          0
219              27.80      -0.57      0          FUNCTIONAL 0 0          0
229              27.80      -0.67      0          FUNCTIONAL 0 0          0
239              27.85      -0.82      0          FUNCTIONAL 0 0          0
249              27.23      0.10       0          FUNCTIONAL 0 0          0
259              27.23      0          0          FUNCTIONAL 0 0          0
299              27.73      0.30       0          FUNCTIONAL 0 0          0
309              27.33      0.40       0          FUNCTIONAL 0 0          0
319              27.13      0.40       0          FUNCTIONAL 0 0          0
339              26.73      0.10       0          FUNCTIONAL 0 0          0
409              26.83      0.60       0          FUNCTIONAL 0 0          0
379              27.63      0.30       0          FUNCTIONAL 0 0          0
389              27.23      0.70       0          FUNCTIONAL 0 0          0
399              27.20      0.53       0          FUNCTIONAL 0 0          0
419              27.33      0.90       0          FUNCTIONAL 0 0          0
429              27.63      1.60       0          FUNCTIONAL 0 0          0
439              29.20      -0.77      0          FUNCTIONAL 0 0          0
449              26.30      0.23       0          FUNCTIONAL 0 0          0
459              25.00      -0.57      0          FUNCTIONAL 0 0          0
579              23.53      0.40       0          FUNCTIONAL 0 0          0
509              23.93      -0.60      0          FUNCTIONAL 0 0          0
519              23.73      -0.90      0          FUNCTIONAL 0 0          0
529              23.63      0.30       0          FUNCTIONAL 0 0          0
539              24.90      -0.27      0          FUNCTIONAL 0 0          0
549              24.70      -0.07      0          FUNCTIONAL 0 0          0
559              23.83      0.70       0          FUNCTIONAL 0 0          0
569              23.73      0.70       0          FUNCTIONAL 0 0          0
589              23.13      -0.20      0          FUNCTIONAL 0 0          0
599              22.73      -0.50      0          FUNCTIONAL 0 0          0
609              22.83      -1.40      0          FUNCTIONAL 0 0          0
629              30.40      0.43       0          FUNCTIONAL 0 0          0
639              29.83      0.70       0          FUNCTIONAL 0 0          0
649              29.93      0.40       0          FUNCTIONAL 0 0          0
659              30.10      0.23       0          FUNCTIONAL 0 0          0
669              30.20      0.13       0          FUNCTIONAL 0 0          0
679              30.30      0.13       0          FUNCTIONAL 0 0          0
689              30.20      0.23       0          FUNCTIONAL 0 0          0
699              30.15      0.28       0          FUNCTIONAL 0 0          0
709              30.20      0.03       0          FUNCTIONAL 0 0          0
719              29.90      0.33       0          FUNCTIONAL 0 0          0
729              30.20      0.13       0          FUNCTIONAL 0 0          0
739              30.50      -0.07      0          FUNCTIONAL 0 0          0
869              30.67      -0.34      0          FUNCTIONAL 0 0          0
799              31.23      0          0          FUNCTIONAL 0 0          0
809              30.90      0.23       0          FUNCTIONAL 0 0          0
819              30.60      0.63       0          FUNCTIONAL 0 0          0
829              30.50      0.63       0          FUNCTIONAL 0 0          0
839              30.70      0.33       0          FUNCTIONAL 0 0          0
849              30.53      -0.10      0          FUNCTIONAL 0 0          0
859              30.93      -0.40      0          FUNCTIONAL 0 0          0
879              30.63      -1.20      0          FUNCTIONAL 0 0          0
889              29.53      -0.10      0          FUNCTIONAL 0 0          0
899              28.62      1.01       0          FUNCTIONAL 0 0          0
909              28.22      0.11       0          FUNCTIONAL 0 0          0
919              27.67      0.06       0          FUNCTIONAL 0 0          0
959              27.83      -1.60      0          FUNCTIONAL 0 0          0
969/Pitt         26.43      0          0          FUNCTIONAL 0 0          0
979              26.40      -0.07      0          FUNCTIONAL 0 0          0
989              27.66      -0.93      0          FUNCTIONAL 0 0          0
999              27.33      -0.50      0          FUNCTIONAL 0 0          0
1009             27.33      -0.60      0          FUNCTIONAL 0 0          0
1019             27.33      -0.40      0          FUNCTIONAL 0 0          0
1029             27.33      -0.50      0          FUNCTIONAL 0 0          0
1099             27.04      -0.01      0          FUNCTIONAL 0 0          0
1109/Nap3        27.33      0          0          FUNCTIONAL 0 0          0
1119             26.98      -1.45      0          FUNCTIONAL 0 0          0
1129             25.18      -0.45      0          FUNCTIONAL 0 0          0
1139             24.52      0.01       0          FUNCTIONAL 0 0          0
1149             24.27      -0.04      0          FUNCTIONAL 0 0          0
1159             23.84      -0.11      0          FUNCTIONAL 0 0          0
1169             23.79      -1.26      0          FUNCTIONAL 0 0          0
1329             22.60      1.33       0          FUNCTIONAL 0 0          0
1189             23.83      -0.60      0          FUNCTIONAL 0 0          0
1199             23.63      -1.30      0          FUNCTIONAL 0 0          0
1209             22.23      0          0          FUNCTIONAL 0 0          0
1219             22.03      0.30       0          FUNCTIONAL 0 0          0
1229             22.25      -0.22      0          FUNCTIONAL 0 0          0
1239             22.26      -0.63      0          FUNCTIONAL 0 0          0
1249             22.63      0.30       0          FUNCTIONAL 0 0          0
1289             23.80      0.43       0          FUNCTIONAL 0 0          0
1299             23.64      -0.01      0          FUNCTIONAL 0 0          0
1309             23.00      0.53       0          FUNCTIONAL 0 0          0
1319             22.64      0.79       0          FUNCTIONAL 0 0          0
1339             22.63      0.60       0          FUNCTIONAL 0 0          0
1349             22.63      0          0          FUNCTIONAL 0 0          0
1359             21.83      0          0          FUNCTIONAL 0 0          0
1369             21.50      -0.07      0          FUNCTIONAL 0 0          0
1379             21.60      -0.47      0          FUNCTIONAL 0 0          0
3629             23.73      -1.20      0          FUNCTIONAL 0 0          0
3619             21.43      0          0          FUNCTIONAL 0 0          0
3609             20.73      0.70       0          FUNCTIONAL 0 0          0
3599             20.63      1.00       0          FUNCTIONAL 0 0          0
3589             20.53      1.60       0          FUNCTIONAL 0 0          0
3579             20.73      1.20       0          FUNCTIONAL 0 0          0
2079             30.43      -0.20      0          FUNCTIONAL 0 0          0
2099             29.43      -0.10      0          FUNCTIONAL 0 0          0
2109             29.20      0.33       0          FUNCTIONAL 0 0          0
2119             29.00      0.33       0          FUNCTIONAL 0 0          0
2129             28.90      0.03       0          FUNCTIONAL 0 0          0
2139             28.80      0.33       0          FUNCTIONAL 0 0          0
2149             28.70      0.63       0          FUNCTIONAL 0 0          0
2159             28.70      0.63       0          FUNCTIONAL 0 0          0
2259             28.60      0.33       0          FUNCTIONAL 0 0          0
2199             29.50      -0.17      0          FUNCTIONAL 0 0          0
2209             29.30      -0.17      0          FUNCTIONAL 0 0          0
2219             28.90      0.33       0          FUNCTIONAL 0 0          0
2229             28.60      0.03       0          FUNCTIONAL 0 0          0
2239             29.13      -0.20      0          FUNCTIONAL 0 0          0
2249             28.50      0.43       0          FUNCTIONAL 0 0          0
2269             28.83      -0.30      0          FUNCTIONAL 0 0          0
2279             28.73      -0.20      0          FUNCTIONAL 0 0          0
2289             28.10      0.23       0          FUNCTIONAL 0 0          0
2299             27.83      -0.10      0          FUNCTIONAL 0 0          0
2309             27.03      0.20       0          FUNCTIONAL 0 0          0
2479/Thrd2       27.83      0          0          FUNCTIONAL 0 0          0
2349             26.83      0.40       0          FUNCTIONAL 0 0          0
2359             26.83      1.00       0          FUNCTIONAL 0 0          0
2369             26.33      1.20       0          FUNCTIONAL 0 0          0
2379             27.03      0.20       0          FUNCTIONAL 0 0          0
2389             26.73      0.60       0          FUNCTIONAL 0 0          0
2419             27.45      -0.92      0          FUNCTIONAL 0 0          0
2429             27.40      -0.87      0          FUNCTIONAL 0 0          0
2439             27.70      -0.37      0          FUNCTIONAL 0 0          0
2449             27.65      -0.42      0          FUNCTIONAL 0 0          0
2459             27.45      -0.22      0          FUNCTIONAL 0 0          0
2469             27.55      -0.42      0          FUNCTIONAL 0 0          0
2489             27.41      -0.78      0          FUNCTIONAL 0 0          0
2499             26.00      0.23       0          FUNCTIONAL 0 0          0
2509             25.70      -1.07      0          FUNCTIONAL 0 0          0
2519             25.50      -0.27      0          FUNCTIONAL 0 0          0
2529             25.20      -0.37      0          FUNCTIONAL 0 0          0
2539             24.33      0.30       0          FUNCTIONAL 0 0          0
2679             23.73      0.70       0          FUNCTIONAL 0 0          0
2689             23.90      0.43       0          FUNCTIONAL 0 0          0
2699             23.50      0.33       0          FUNCTIONAL 0 0          0
2709             22.93      0.50       0          FUNCTIONAL 0 0          0
2719             22.43      0.30       0          FUNCTIONAL 0 0          0
2729             22.03      0.30       0          FUNCTIONAL 0 0          0
2739             24.23      -3.00      0          FUNCTIONAL 0 0          0
2959             27.93      0.50       0          FUNCTIONAL 0 0          0
2969             26.73      1.00       0          FUNCTIONAL 0 0          0
2979             27.03      0.70       0          FUNCTIONAL 0 0          0
3039             28.20      -0.57      0          FUNCTIONAL 0 0          0
2989             28.23      0.30       0          FUNCTIONAL 0 0          0
2999             28.83      -0.20      0          FUNCTIONAL 0 0          0
3009             28.53      -0.20      0          FUNCTIONAL 0 0          0
3019             28.63      -0.30      0          FUNCTIONAL 0 0          0
3029             28.50      -0.27      0          FUNCTIONAL 0 0          0
3049             28.13      0.60       0          FUNCTIONAL 0 0          0
3139             28.10      -0.67      0          FUNCTIONAL 0 0          0
3149             26.73      1.80       0          FUNCTIONAL 0 0          0
3159             26.93      0.40       0          FUNCTIONAL 0 0          0
3169             27.03      -0.30      0          FUNCTIONAL 0 0          0
3179             26.53      -0.20      0          FUNCTIONAL 0 0          0
3189             26.23      -0.50      0          FUNCTIONAL 0 0          0
3199             25.93      -0.70      0          FUNCTIONAL 0 0          0
3209             25.43      -0.60      0          FUNCTIONAL 0 0          0
3219             25.23      -0.40      0          FUNCTIONAL 0 0          0
3229             25.13      -0.40      0          FUNCTIONAL 0 0          0
3239             24.43      -0.10      0          FUNCTIONAL 0 0          0
3249             24.33      -0.50      0          FUNCTIONAL 0 0          0
3259             23.83      0.60       0          FUNCTIONAL 0 0          0
3269             23.53      1.00       0          FUNCTIONAL 0 0          0
2629             23.33      0.30       0          FUNCTIONAL 0 0          0
2639             23.73      0.10       0          FUNCTIONAL 0 0          0
2649             23.63      0.70       0          FUNCTIONAL 0 0          0
2659             23.93      -0.10      0          FUNCTIONAL 0 0          0
2669             23.93      0.10       0          FUNCTIONAL 0 0          0
2569             23.93      0.80       0          FUNCTIONAL 0 0          0
2579             24.43      0.10       0          FUNCTIONAL 0 0          0
2589             24.53      0.20       0          FUNCTIONAL 0 0          0
2599             24.13      0.90       0          FUNCTIONAL 0 0          0
2609             23.83      0.40       0          FUNCTIONAL 0 0          0
2951             27.83      1.30       0          FUNCTIONAL 0 0          0
2619             23.53      0          0          FUNCTIONAL 0 0          0
2559             24.53      0.50       0          FUNCTIONAL 0 0          0
2189             29.83      -0.30      0          FUNCTIONAL 0 0          0
2339             26.83      1.10       0          FUNCTIONAL 0 0          0
2949             27.93      1.00       0          FUNCTIONAL 0 0          0
3129             27.03      0.20       0          FUNCTIONAL 0 0          0
8059             24.03      0.30       0          FUNCTIONAL 0 0          0
8119             22.83      -0.60      0          FUNCTIONAL 0 0          0
8129             23.03      -0.90      0          FUNCTIONAL 0 0          0
8139             23.85      -1.82      0          FUNCTIONAL 0 0          0
8149             22.40      -0.57      0          FUNCTIONAL 0 0          0
8159             22.24      0.49       0          FUNCTIONAL 0 0          0
8169             22.23      -0.20      0          FUNCTIONAL 0 0          0
8179             21.65      -0.12      0          FUNCTIONAL 0 0          0
8189             21.73      0.30       0          FUNCTIONAL 0 0          0
8199             20.83      1.10       0          FUNCTIONAL 0 0          0
8209             19.53      0.80       0          FUNCTIONAL 0 0          0
8219             18.73      1.50       0          FUNCTIONAL 0 0          0
8229             18.33      0.90       0          FUNCTIONAL 0 0          0
8549             26.00      -3.00      0          FUNCTIONAL 0 0          0
STROlean         19.43      0          0          FUNCTIONAL 0 0          0
8239             27.85      -3.00      0          FUNCTIONAL 0 0          0
8259             28.00      -3.00      0          FUNCTIONAL 0 0          0
8279             27.30      -3.00      0          FUNCTIONAL 0 0          0
8299             27.30      -3.00      0          FUNCTIONAL 0 0          0
8319             27.40      -3.00      0          FUNCTIONAL 0 0          0
8339             25.65      -3.00      0          FUNCTIONAL 0 0          0
8359             25.70      -3.00      0          FUNCTIONAL 0 0          0
8379             24.78      -3.00      0          FUNCTIONAL 0 0          0
8399             24.60      -3.00      0          FUNCTIONAL 0 0          0
8419             24.60      -3.00      0          FUNCTIONAL 0 0          0
8439             24.80      -3.00      0          FUNCTIONAL 0 0          0
8459             24.96      -3.00      0          FUNCTIONAL 0 0          0
8479             25.60      -3.00      0          FUNCTIONAL 0 0          0
8918             27.00      -5.20      0          FUNCTIONAL 0 0          0
8529             25.80      2.40       0          FUNCTIONAL 0 0          0
8539             25.90      -3.00      0          FUNCTIONAL 0 0          0
8919             27.00      -3.70      0          FUNCTIONAL 0 0          0
8639             30.10      -3.00      0          FUNCTIONAL 0 0          0
3709             22.73      0.20       0          FUNCTIONAL 0 0          0
3719             20.43      2.80       0          FUNCTIONAL 0 0          0
3729             18.43      0.97       0          FUNCTIONAL 0 0          0
3739             19.93      -0.43      0          FUNCTIONAL 0 0          0
3749             19.13      0.67       0          FUNCTIONAL 0 0          0
3759             17.73      2.17       0          FUNCTIONAL 0 0          0
3769             18.23      1.67       0          FUNCTIONAL 0 0          0
3779             18.13      1.47       0          FUNCTIONAL 0 0          0
1529             20.73      0.80       0          FUNCTIONAL 0 0          0
1569             20.93      0.20       0          FUNCTIONAL 0 0          0
1399/GenTy       23.10      0          0          FUNCTIONAL 0 0          0
1409             20.60      -0.37      0          FUNCTIONAL 0 0          0
1419             21.40      -1.67      0          FUNCTIONAL 0 0          0
1459             21.23      0          0          FUNCTIONAL 0 0          0
1439             21.03      0          0          FUNCTIONAL 0 0          0
1449             21.03      0.20       0          FUNCTIONAL 0 0          0
1469             20.63      0.70       0          FUNCTIONAL 0 0          0
1479             20.63      0.50       0          FUNCTIONAL 0 0          0
1489             20.63      0.30       0          FUNCTIONAL 0 0          0
1499             20.53      0.20       0          FUNCTIONAL 0 0          0
1509             20.43      0.20       0          FUNCTIONAL 0 0          0
1519             20.93      0.30       0          FUNCTIONAL 0 0          0
1849/Nash2       22.93      0          0          FUNCTIONAL 0 0          0
1739             22.13      0.80       0          FUNCTIONAL 0 0          0
1639             21.10      -0.57      0          FUNCTIONAL 0 0          0
1629             21.63      -0.40      0          FUNCTIONAL 0 0          0
1619             20.73      0.20       0          FUNCTIONAL 0 0          0
1649             20.45      -0.22      0          FUNCTIONAL 0 0          0
1659             19.90      0.13       0          FUNCTIONAL 0 0          0
1669             20.00      -0.17      0          FUNCTIONAL 0 0          0
1679             19.73      -0.20      0          FUNCTIONAL 0 0          0
1689             20.63      -1.00      0          FUNCTIONAL 0 0          0
1699             20.65      -0.42      0          FUNCTIONAL 0 0          0
1709             20.53      -0.40      0          FUNCTIONAL 0 0          0
1719             20.65      -0.72      0          FUNCTIONAL 0 0          0
1729             20.63      -1.00      0          FUNCTIONAL 0 0          0
3419             20.13      -0.20      0          FUNCTIONAL 0 0          0
1749             21.53      -1.00      0          FUNCTIONAL 0 0          0
1759             20.43      0.10       0          FUNCTIONAL 0 0          0
1769             20.43      0.10       0          FUNCTIONAL 0 0          0
1779             19.43      1.30       0          FUNCTIONAL 0 0          0
1789/Nap0        20.63      0          0          FUNCTIONAL 0 0          0
1799             20.23      0.30       0          FUNCTIONAL 0 0          0
1809             20.20      0.03       0          FUNCTIONAL 0 0          0
1819             20.60      -0.47      0          FUNCTIONAL 0 0          0
1829             21.20      -1.17      0          FUNCTIONAL 0 0          0
1839             19.53      0.40       0          FUNCTIONAL 0 0          0
1859             20.73      -0.50      0          FUNCTIONAL 0 0          0
1869             21.13      -0.60      0          FUNCTIONAL 0 0          0
1879             21.33      -1.10      0          FUNCTIONAL 0 0          0
1889             20.93      -0.80      0          FUNCTIONAL 0 0          0
1899             20.73      -0.60      0          FUNCTIONAL 0 0          0
1999             20.53      -0.40      0          FUNCTIONAL 0 0          0
2009             21.03      -0.90      0          FUNCTIONAL 0 0          0
2019             21.13      -0.90      0          FUNCTIONAL 0 0          0
2029             20.93      -0.50      0          FUNCTIONAL 0 0          0
2039             21.03      -0.40      0          FUNCTIONAL 0 0          0
2049             20.23      0.20       0          FUNCTIONAL 0 0          0
2059             20.23      0          0          FUNCTIONAL 0 0          0
2069             20.23      -0.30      0          FUNCTIONAL 0 0          0
2809             21.43      0          0          FUNCTIONAL 0 0          0
2769             21.13      0.40       0          FUNCTIONAL 0 0          0
2759             21.53      0.20       0          FUNCTIONAL 0 0          0
2741             21.53      0.60       0          FUNCTIONAL 0 0          0
3289             23.93      -1.00      0          FUNCTIONAL 0 0          0
3299             23.53      1.10       0          FUNCTIONAL 0 0          0
2819             21.43      0          0          FUNCTIONAL 0 0          0
2829             21.83      -0.30      0          FUNCTIONAL 0 0          0
2839             21.23      0.10       0          FUNCTIONAL 0 0          0
2899             20.43      -0.20      0          FUNCTIONAL 0 0          0
2919             20.43      0.10       0          FUNCTIONAL 0 0          0
2929             20.43      0.50       0          FUNCTIONAL 0 0          0
2939             21.43      -0.80      0          FUNCTIONAL 0 0          0
3309             23.33      0.60       0          FUNCTIONAL 0 0          0
3319             23.13      0.50       0          FUNCTIONAL 0 0          0
3329             22.53      0.50       0          FUNCTIONAL 0 0          0
3339             21.63      0.90       0          FUNCTIONAL 0 0          0
3349             21.03      0.30       0          FUNCTIONAL 0 0          0
3359             20.23      0.90       0          FUNCTIONAL 0 0          0
3369             20.93      -0.30      0          FUNCTIONAL 0 0          0
3379             21.43      -0.90      0          FUNCTIONAL 0 0          0
3459             21.03      -0.10      0          FUNCTIONAL 0 0          0
3449             20.73      -0.20      0          FUNCTIONAL 0 0          0
3439             20.23      0.80       0          FUNCTIONAL 0 0          0
3429/Walm        20.43      0          0          FUNCTIONAL 0 0          0
8049             24.13      0.10       0          FUNCTIONAL 0 0          0
8079             23.43      0.80       0          FUNCTIONAL 0 0          0
8089             23.33      -0.20      0          FUNCTIONAL 0 0          0
8099             22.93      -0.30      0          FUNCTIONAL 0 0          0
8109             22.23      0.20       0          FUNCTIONAL 0 0          0
1609             20.43      0.10       0          FUNCTIONAL 0 0          0
2879             20.13      -0.90      0          FUNCTIONAL 0 0          0
5069             20.53      1.40       0          FUNCTIONAL 0 0          0
5079             21.33      0.30       0          FUNCTIONAL 0 0          0
5089             21.43      -0.20      0          FUNCTIONAL 0 0          0
5099             21.03      -0.00      0          FUNCTIONAL 0 0          0
5109             21.01      -0.98      0          FUNCTIONAL 0 0          0
5119             20.73      -0.90      0          FUNCTIONAL 0 0          0
5129/Jeff        20.63      0          0          FUNCTIONAL 0 0          0
5139             20.63      -1.40      0          FUNCTIONAL 0 0          0
5149             20.63      -0.70      0          FUNCTIONAL 0 0          0
3409             22.73      0.90       0          FUNCTIONAL 0 0          0
8039/New         23.73      0          0          FUNCTIONAL 0 0          0
8069             23.43      -1.00      0          FUNCTIONAL 0 0          0
1522             21.73      0.10       0          FUNCTIONAL 0 0          0
1389             20.63      0.80       0          FUNCTIONAL 0 0          0
1599             20.53      -0.60      0          FUNCTIONAL 0 0          0
2789             21.03      0.60       0          FUNCTIONAL 0 0          0
2869             20.03      -0.80      0          FUNCTIONAL 0 0          0
5059             20.23      1.00       0          FUNCTIONAL 0 0          0
3411             23.83      0.30       0          FUNCTIONAL 0 0          0
8029             23.93      -0.10      0          FUNCTIONAL 0 0          0
49               34.13      -1.00      0          FUNCTIONAL 0 0          0
59               33.73      -0.40      0          FUNCTIONAL 0 0          0
69               33.13      0.20       0          FUNCTIONAL 0 0          0
89               33.23      -0.90      0          FUNCTIONAL 0 0          0
39               32.13      0.20       0          FUNCTIONAL 0 0          0
29               31.73      0.50       0          FUNCTIONAL 0 0          0
19               32.03      0.10       0          FUNCTIONAL 0 0          0
189              27.33      0          0          FUNCTIONAL 0 0          0
349              27.53      0.40       0          FUNCTIONAL 0 0          0
359              25.70      2.23       0          FUNCTIONAL 0 0          0
369              27.33      0.70       0          FUNCTIONAL 0 0          0
469              22.23      0.80       0          FUNCTIONAL 0 0          0
479              25.60      -3.17      0          FUNCTIONAL 0 0          0
489              26.00      -3.07      0          FUNCTIONAL 0 0          0
499              25.86      -2.73      0          FUNCTIONAL 0 0          0