;; SWMM5 .inp converted from XPSWMM .xp file
;; Generated by XPSWMM Card Reader
;; Source format: XP_CARD | Original title: BUCYRUS CSO Model

[TITLE]
;;Project Title/Notes
BUCYRUS CSO Model

[OPTIONS]
FLOW_UNITS           CFS
INFILTRATION         HORTON
FLOW_ROUTING         DYNWAVE
LINK_OFFSETS         DEPTH
MIN_SLOPE            0.0
ALLOW_PONDING        NO
SKIP_STEADY_STATE    NO
ROUTING_STEP         00:00:30
VARIABLE_STEP        0.75
INERTIAL_DAMPING     PARTIAL
NORMAL_FLOW_LIMITED  BOTH
MAX_TRIALS           100

[JUNCTIONS]
;;Name           Elev       MaxDepth   InitDepth  SurDepth   Aponded
;;-------------- ---------- ---------- ---------- ---------- ----------
411              0          0          0          0          0
520              0          0          0          0          0
620              0          0          0          0          0
640              0          0          0          0          0
650              0          0          0          0          0
720              0          0          0          0          0
820              0          0          0          0          0
960              0          0          0          0          0
930              0          0          0          0          0
920              0          0          0          0          0
940              0          0          0          0          0
1011             0          0          0          0          0
1111             0          0          0          0          0
1220             0          0          0          0          0
1230             0          0          0          0          0
1320             0          0          0          0          0
1330             0          0          0          0          0
1340             0          0          0          0          0
1411             0          0          0          0          0
1511             0          0          0          0          0
1611             0          0          0          0          0
1711             0          0          0          0          0
1730             0          0          0          0          0
1740             0          0          0          0          0
1750             0          0          0          0          0
1770             0          0          0          0          0
1780             0          0          0          0          0
1790             0          0          0          0          0
1811             0          0          0          0          0
1911             0          0          0          0          0
2011             0          0          0          0          0
2111             0          0          0          0          0
2211             0          0          0          0          0
2230             0          0          0          0          0
2240             0          0          0          0          0
2311             0          0          0          0          0
2320             0          0          0          0          0
2340             0          0          0          0          0
2350             0          0          0          0          0
2360             0          0          0          0          0
2380             0          0          0          0          0
2720             0          0          0          0          0
2730             0          0          0          0          0
2911             0          0          0          0          0
2930             0          0          0          0          0
2940             0          0          0          0          0
311              989.89     0          0          0          0
310              976.09     0          0          0          0
5503             985.61     0          0          0          0
03               977.70     0          0          0          0
5505             986.92     0          0          0          0
411              993.02     0          0          0          0
410              983.64     0          0          0          0
511              987.19     0          0          0          0
510              975.45     0          0          0          0
05               977.70     0          0          0          0
5506             984.36     0          0          0          0
611              977.65     0          0          0          0
610              974.91     0          0          0          0
06               977.70     0          0          0          0
5507             983.91     0          0          0          0
711              989.84     0          0          0          0
710              977.98     0          0          0          0
07               977.70     0          0          0          0
5508             981.66     0          0          0          0
811              980.79     0          0          0          0
812              975.50     0          0          0          0
810              975.50     0          0          0          0
08               975.50     0          0          0          0
5509             984.76     0          0          0          0
911              981.83     0          0          0          0
910              972.40     0          0          0          0
09               977.70     0          0          0          0
5511             991.87     0          0          0          0
1111             991.89     0          0          0          0
1112             987.77     0          0          0          0
1110             983.71     0          0          0          0
1108             985.87     0          0          0          0
11               977.70     0          0          0          0
5512             991.79     0          0          0          0
1211             983.78     0          0          0          0
1210             969.95     0          0          0          0
1011             980.93     0          0          0          0
12               966.27     0          0          0          0
5513             984.93     0          0          0          0
1411             998.57     0          0          0          0
1311             999.01     0          0          0          0
1310             980.16     0          0          0          0
13               966.22     0          0          0          0
5515             988.51     0          0          0          0
1611             988.78     0          0          0          0
1612             983.78     0          0          0          0
1610             978.70     0          0          0          0
16               965.87     0          0          0          0
1511             991.02     0          0          0          0
1510             976.84     0          0          0          0
15               968.75     0          0          0          0
5518             980.06     0          0          0          0
1711             980.69     0          0          0          0
1710             974.63     0          0          0          0
17               965.76     0          0          0          0
1811             988.70     0          0          0          0
1814             983.77     0          0          0          0
1812             980.77     0          0          0          0
1810             973.57     0          0          0          0
18               965.66     0          0          0          0
5519             977.97     0          0          0          0
1911             993.14     0          0          0          0
1914             987.77     0          0          0          0
1912             987.77     0          0          0          0
1910             968.42     0          0          0          0
19               963.88     0          0          0          0
5520             978.22     0          0          0          0
2011             983.42     0          0          0          0
2010             968.85     0          0          0          0
20               963.68     0          0          0          0
2111             996.62     0          0          0          0
2112             987.77     0          0          0          0
2110             969.01     0          0          0          0
21               961.89     0          0          0          0
5522             976.93     0          0          0          0
2211             977.77     0          0          0          0
2212             974.25     0          0          0          0
2210             966.57     0          0          0          0
22               963.50     0          0          0          0
5523             976.95     0          0          0          0
2311             997.13     0          0          0          0
2312             987.77     0          0          0          0
2310             966.99     0          0          0          0
23               967.78     0          0          0          0
5588             975.54     0          0          0          0
2711             1000.90    0          0          0          0
6660             1005.00    0          0          0          0
6650             1003.10    0          0          0          0
6640             999.17     0          0          0          0
2710             988.05     0          0          0          0
27               986.04     0          0          0          0
66011            997.77     0          0          0          0
2911             990.20     0          0          0          0
29011            990.77     0          0          0          0
5566             976.92     0          0          0          0
2410             987.77     0          0          0          0
2510             975.26     0          0          0          0
2610             976.65     0          0          0          0
6620             987.77     0          0          0          0
25               961.51     0          0          0          0
26               961.32     0          0          0          0
7820             992.77     0          0          0          0
7830             992.77     0          0          0          0
311              0          0          0          0          0
320              0          0          0          0          0
411              0          0          0          0          0
511              0          0          0          0          0
520              0          0          0          0          0
611              0          0          0          0          0
620              0          0          0          0          0
640              0          0          0          0          0
650              0          0          0          0          0
711              0          0          0          0          0
720              0          0          0          0          0
811              0          0          0          0          0
820              0          0          0          0          0
911              0          0          0          0          0
920              0          0          0          0          0
930              0          0          0          0          0
940              0          0          0          0          0
960              0          0          0          0          0
1011             0          0          0          0          0
1111             0          0          0          0          0
1211             0          0          0          0          0
1220             0          0          0          0          0
1230             0          0          0          0          0
1311             0          0          0          0          0
1320             0          0          0          0          0
1330             0          0          0          0          0
1340             0          0          0          0          0
1411             0          0          0          0          0
1511             0          0          0          0          0
1611             0          0          0          0          0
1711             0          0          0          0          0
1730             0          0          0          0          0
1740             0          0          0          0          0
1750             0          0          0          0          0
1760             0          0          0          0          0
1770             0          0          0          0          0
1780             0          0          0          0          0
1790             0          0          0          0          0
1811             0          0          0          0          0
1911             0          0          0          0          0
2011             0          0          0          0          0
2111             0          0          0          0          0
2211             0          0          0          0          0
2240             0          0          0          0          0
2230             0          0          0          0          0
2311             0          0          0          0          0
2320             0          0          0          0          0
2330             0          0          0          0          0
2340             0          0          0          0          0
2350             0          0          0          0          0
2360             0          0          0          0          0
2370             0          0          0          0          0
2380             0          0          0          0          0
2711             0          0          0          0          0
2720             0          0          0          0          0
2730             0          0          0          0          0
2911             0          0          0          0          0
2930             0          0          0          0          0
2940             0          0          0          0          0
29               965.00     0          0          0          0
1702             974.00     0          0          0          0
5577             975.54     0          0          0          0
24               987.00     0          0          0          0

[STORAGE]
;;Name           Elev       MaxDepth   InitDepth  Shape      Curve/Params
;;-------------- ---------- ---------- ---------- ---------- ----------
7810             980.00     0          0          FUNCTIONAL 100.00 0          0
2910             980.61     0          0          FUNCTIONAL 10.00 0          0

[CONDUITS]
;;Name           From             To               Length     Roughness  InOffset   OutOffset  InitFlow   MaxFlow
;;-------------- ---------------- ---------------- ---------- ---------- ---------- ---------- ---------- ----------
3101             311              310              525.00     0.0130     974.84     969.75     0          0
3001             310              5503             12.00      0.0150     969.75     969.02     0          0
3999             310              03               47.00      0.0150     970.73     968.87     0          0
55055            5503             5505             1350.00    0.0150     969.02     964.96     0          0
4101             411              410              200.00     0.0150     981.69     972.49     0          0
4001             410              5503             500.00     0.0150     972.49     969.02     0          0
5101             511              510              625.00     0.0155     972.24     967.14     0          0
5001             510              5505             300.00     0.0150     967.14     964.96     0          0
5999             510              05               14.00      0.0090     968.39     969.00     0          0
55065            5505             5506             300.00     0.0150     964.96     964.06     0          0
6101             611              610              350.00     0.0150     968.15     966.81     0          0
6001             610              5506             7.77       0.0150     966.81     964.06     0          0
6999             610              06               100.00     0.0150     968.81     968.06     0          0
55075            5506             5507             700.00     0.0150     964.06     961.96     0          0
7101             711              710              400.00     0.0155     977.19     966.90     0          0
7001             710              5507             20.00      0.0130     966.90     961.96     0          0
7999             710              07               20.00      0.0130     967.73     966.37     0          0
55085            5507             5508             625.00     0.0155     961.96     961.50     0          0
8103             811              812              400.00     0.0155     968.39     967.66     0          0
8101             812              810              400.00     0.0155     967.66     965.72     0          0
8001             810              5508             77.70      0.0155     965.72     961.50     0          0
8999             810              08               3.00       0.0130     966.52     966.10     0          0
55095            5508             5509             900.00     0.0155     961.50     960.84     0          0
9101             911              910              650.00     0.0150     973.53     964.30     0          0
9001             910              5509             150.00     0.0150     964.30     960.84     0          0
9999             910              09               118.00     0.0150     965.10     965.45     0          0
55115            5509             5511             375.00     0.0150     960.84     960.56     0          0
11103            1111             1112             350.00     0.0150     978.49     976.56     0          0
11101            1112             1110             350.00     0.0150     976.56     971.93     0          0
11001            1110             1108             54.00      0.0150     971.93     972.32     0          0
11801            1108             5511             7.70       0.0150     961.00     960.56     0          0
11999            1110             11               37.00      0.0150     972.93     973.23     0          0
55125            5511             5512             400.00     0.0150     960.56     960.35     0          0
12101            1211             1210             1050.00    0.0150     967.05     965.05     0          0
10101            1011             1210             400.00     0.0150     966.44     965.05     0          0
12001            1210             5512             77.77      0.0150     965.05     960.35     0          0
12999            1210             12               13.00      0.0130     965.32     965.00     0          0
55135            5512             5513             1000.00    0.0150     960.35     959.80     0          0
14001            1411             5513             500.00     0.0150     980.65     959.80     0          0
13101            1311             1310             900.00     0.0150     988.54     964.11     0          0
13999            1310             13               20.70      0.0150     965.04     964.11     0          0
13001            1310             5513             37.70      0.0090     964.11     959.80     0          0
55155            5513             5515             900.00     0.0150     959.80     959.15     0          0
16103            1611             1612             400.00     0.0150     979.68     973.38     0          0
16101            1612             1610             400.00     0.0150     973.38     967.08     0          0
16001            1610             5515             69.00      0.0140     967.08     959.15     0          0
16999            1610             16               77.70      0.0140     968.03     964.87     0          0
15101            1511             1510             500.00     0.0140     983.18     967.14     0          0
15001            1510             5515             450.00     0.0140     967.14     959.15     0          0
15999            1510             15               17.00      0.0140     967.70     967.70     0          0
55185            5515             5518             1400.00    0.0150     959.15     957.69     0          0
17101            1711             1710             1900.00    0.0155     969.59     962.10     0          0
17999            1710             17               122.00     0.0150     963.10     962.06     0          0
18105            1811             1814             350.00     0.0150     982.34     976.30     0          0
18103            1814             1812             350.00     0.0150     976.30     970.20     0          0
18101            1812             1810             350.00     0.0150     970.20     964.15     0          0
18001            1810             5518             14.00      0.0140     964.15     957.69     0          0
18999            1810             18               107.07     0.0090     964.63     964.11     0          0
55195            5518             5519             450.00     0.0150     957.69     956.70     0          0
19105            1911             1914             600.00     0.0150     984.46     976.66     0          0
19103            1914             1912             600.00     0.0150     976.66     968.87     0          0
19101            1912             1910             600.00     0.0150     968.87     961.07     0          0
19001            1910             5519             77.70      0.0140     961.07     956.70     0          0
19999            1910             19               50.00      0.0150     962.32     962.38     0          0
55205            5519             5520             500.00     0.0150     956.70     956.46     0          0
20101            2011             2010             475.00     0.0155     976.07     962.39     0          0
20001            2010             5520             17.00      0.0155     962.39     959.41     0          0
20999            2010             20               280.00     0.0090     962.75     960.89     0          0
21103            2111             2112             600.00     0.0150     988.71     976.08     0          0
21101            2112             2110             650.00     0.0150     976.08     962.39     0          0
21001            2110             5520             77.70      0.0150     962.39     956.46     0          0
21999            2110             21               218.00     0.0150     962.91     960.89     0          0
55225            5520             5522             1100.00    0.0155     956.46     955.44     0          0
22103            2211             2212             600.00     0.0155     967.77     964.25     0          0
22101            2212             2210             600.00     0.0155     964.25     960.72     0          0
22001            2210             5522             25.00      0.0155     960.50     958.39     0          0
22999            2210             22               83.00      0.0155     961.37     960.50     0          0
55235            5522             5523             450.00     0.0155     955.44     955.16     0          0
23103            2311             2312             1200.00    0.0155     978.23     969.74     0          0
23101            2312             2310             1200.00    0.0155     969.74     961.48     0          0
23001            2310             5523             57.00      0.0090     961.48     958.11     0          0
23999            2310             23               10.70      0.0155     963.25     961.20     0          0
55245            5523             5588             1050.00    0.0155     955.16     954.29     0          0
66279            2711             6660             1400.00    0.0155     987.93     986.32     0          0
66277            6660             6650             1300.00    0.0155     986.32     984.63     0          0
66275            6650             6640             1500.00    0.0155     984.63     981.59     0          0
66271            6640             2710             600.00     0.0155     981.59     980.22     0          0
27999            2710             27               14.00      0.0155     982.17     984.54     0          0
66265            2710             66011            900.00     0.0155     980.22     977.77     0          0
29003            2911             29011            1150.00    0.0155     973.06     971.87     0          0
66241            5566             2410             900.00     0.0097     953.64     953.00     0          0
66101            2410             7810             900.00     0.0097     953.00     950.00     0          0
66245            2510             5566             900.00     0.0086     954.51     953.64     0          0
66255            2610             2510             475.00     0.0155     956.35     954.51     0          0
66261            6620             2610             1350.00    0.0155     974.77     956.35     0          0
66263            66011            6620             1000.00    0.0155     977.77     974.77     0          0
25999            2510             25               722.20     0.0029     959.51     957.00     0          0
26999            2610             26               722.20     0.0029     959.15     957.00     0          0
78201            7820             7830             1000.00    0.0155     987.77     980.77     0          0
315              320              311              1250.00    0.0150     26.25      0          0          0
615              620              611              1000.00    0.0150     16.60      0          0          0
625              640              620              1050.00    0.0150     6.93       0          0          0
645              650              620              777.70     0.0150     7.78       0          0          0
715              720              711              350.00     0.0150     4.30       0          0          0
815              820              811              450.00     0.0150     13.05      0          0          0
915              920              911              750.00     0.0150     4.50       0          0          0
925              930              920              750.00     0.0150     4.50       0          0          0
955              960              911              2400.00    0.0150     31.20      0          0          0
1215             1220             1211             800.00     0.0150     16.80      0          0          0
1225             1230             1211             800.00     0.0140     31.20      0          0          0
1315             1320             1311             350.00     0.0150     17.50      0          0          0
1325             1330             1311             300.00     0.0150     1.35       0          0          0
1335             1340             1311             350.00     0.0150     3.15       0          0          0
1725             1730             1711             400.00     0.0170     2.16       0          0          0
1735             1740             1730             1600.00    0.0170     6.72       0          0          0
1745             1750             1740             2000.00    0.0170     8.80       0          0          0
1755             1760             1750             450.00     0.0150     0.14       0          0          0
1765             1770             1760             500.00     0.0150     1.75       0          0          0
1775             1780             1770             1150.00    0.0150     4.83       0          0          0
1757             640              1750             1000.00    0.0150     7.70       0          0          0
2215             2240             2211             1000.00    0.0150     9.30       0          0          0
2225             2230             2211             777.70     0.0150     15.55      0          0          0
2315             2320             2311             900.00     0.0150     0.36       0          0          0
2325             2330             2320             1100.00    0.0150     2.64       0          0          0
2335             2340             2330             1000.00    0.0150     0.60       0          0          0
2345             2350             2330             750.00     0.0150     2.10       0          0          0
2355             2360             2350             1200.00    0.0150     5.88       0          0          0
2365             2370             2360             1250.00    0.0150     4.00       0          0          0
2375             2380             2370             1450.00    0.0150     4.93       0          0          0
2715             2720             2711             2400.00    0.0150     2.88       0          0          0
2725             2730             2720             1000.00    0.0150     0.90       0          0          0
2925             2930             2911             2200.00    0.0150     3.56       0          0          0
2935             2940             2930             2950.00    0.0150     13.28      0          0          0
515              520              511              33.00      0.0140     0          0          0          0
935              930              940              500.00     0.0150     3.85       0          0          0
414              1011             1011             0          0          0          0          0          0
419              1770             1780             0          0          0          0          0          0
420              1780             2380             0          0          0          0          0          0
421              2380             2360             0          0          0          0          0          0
422              2360             2350             0          0          0          0          0          0
423              2350             2340             0          0          0          0          0          0
424              2340             2320             0          0          0          0          0          0