;; SWMM5 .inp converted from XPSWMM .xp file
;; Generated by XPSWMM Card Reader
;; Source format: XP_CARD | Original title: Oak Park, IL. - Macro & micro (NE) Combined System

[TITLE]
;;Project Title/Notes
Oak Park, IL. - Macro & micro (NE) Combined System

[OPTIONS]
FLOW_UNITS           CFS
INFILTRATION         HORTON
FLOW_ROUTING         DYNWAVE
LINK_OFFSETS         DEPTH
MIN_SLOPE            0.0
ALLOW_PONDING        NO
SKIP_STEADY_STATE    NO
ROUTING_STEP         00:00:30
VARIABLE_STEP        0.75
INERTIAL_DAMPING     PARTIAL
NORMAL_FLOW_LIMITED  BOTH
MAX_TRIALS           50

[JUNCTIONS]
;;Name           Elev       MaxDepth   InitDepth  SurDepth   Aponded
;;-------------- ---------- ---------- ---------- ---------- ----------
10               38.80      0          0          0          0
18044            39.00      0          0          0          0
12               39.00      0          0          0          0
18054            38.40      0          0          0          0
18               38.50      0          0          0          0
16410            38.50      0          0          0          0
16412            39.20      0          0          0          0
19               39.20      0          0          0          0
13666            50.00      0          0          0          0
20               50.00      0          0          0          0
12881            47.90      0          0          0          0
23               47.90      0          0          0          0
24               39.70      0          0          0          0
14809            39.70      0          0          0          0
25               39.50      0          0          0          0
14811            39.50      0          0          0          0
14812            40.50      0          0          0          0
26               40.50      0          0          0          0
27               40.00      0          0          0          0
14833            40.00      0          0          0          0
28               40.50      0          0          0          0
14839            40.50      0          0          0          0
30               39.50      0          0          0          0
13200            39.50      0          0          0          0
31               38.50      0          0          0          0
18027            38.50      0          0          0          0
32               39.00      0          0          0          0
18036            39.00      0          0          0          0
13642            41.10      0          0          0          0
34               41.10      0          0          0          0
16442            39.00      0          0          0          0
35               39.00      0          0          0          0
18000            38.00      0          0          0          0
1                38.20      0          0          0          0
18003            42.10      0          0          0          0
18009            38.90      0          0          0          0
18012            38.90      0          0          0          0
18018            38.40      0          0          0          0
18024            39.00      0          0          0          0
18042            39.00      0          0          0          0
17954            38.70      0          0          0          0
18046            38.60      0          0          0          0
17960            38.80      0          0          0          0
29               42.50      0          0          0          0
15360            42.50      0          0          0          0
13760            47.50      0          0          0          0
14857            42.50      0          0          0          0
11660            50.50      0          0          0          0
33               50.50      0          0          0          0
19612            37.40      0          0          0          0
19645            38.30      0          0          0          0
16436            39.50      0          0          0          0
11               38.80      0          0          0          0
16854            38.70      0          0          0          0
16400            38.60      0          0          0          0
2                38.60      0          0          0          0
16406            40.00      0          0          0          0
16427            38.80      0          0          0          0
16445            40.10      0          0          0          0
13630            40.30      0          0          0          0
10830            41.50      0          0          0          0
13633            40.50      0          0          0          0
13636            42.80      0          0          0          0
13639            41.50      0          0          0          0
13648            42.50      0          0          0          0
13654            42.60      0          0          0          0
13659            44.50      0          0          0          0
21               50.00      0          0          0          0
12867            50.60      0          0          0          0
22               49.90      0          0          0          0
12884            49.00      0          0          0          0
10836            42.50      0          0          0          0
14800            39.00      0          0          0          0
3                39.00      0          0          0          0
14806            38.20      0          0          0          0
14815            39.70      0          0          0          0
14824            39.70      0          0          0          0
14842            39.90      0          0          0          0
14848            42.10      0          0          0          0
14854            42.50      0          0          0          0
14866            48.20      0          0          0          0
14878            50.00      0          0          0          0
14881            48.20      0          0          0          0
14884            49.10      0          0          0          0
14890            53.40      0          0          0          0
13293            49.50      0          0          0          0
11600            39.80      0          0          0          0
13206            39.50      0          0          0          0
13209            39.80      0          0          0          0
11609            40.20      0          0          0          0
13212            39.70      0          0          0          0
13615            39.80      0          0          0          0
13215            39.90      0          0          0          0
12317            40.00      0          0          0          0
11221            41.00      0          0          0          0
11224            41.00      0          0          0          0
10833            42.00      0          0          0          0
12878            49.90      0          0          0          0
12478            49.50      0          0          0          0
12481            49.50      0          0          0          0
10881            49.30      0          0          0          0
10887            49.50      0          0          0          0
10490            48.70      0          0          0          0
10066            50.00      0          0          0          0
4                49.30      0          0          0          0
10866            50.50      0          0          0          0
11666            50.50      0          0          0          0
12866            50.60      0          0          0          0
28090            41.05      0          0          0          0
28190            40.95      0          0          0          0
26087            50.80      0          0          0          0
26987            44.00      0          0          0          0
29566            39.45      0          0          0          0
29670            39.50      0          0          0          0
29672            39.55      0          0          0          0
29172            39.55      0          0          0          0
28172            39.50      0          0          0          0
28066            39.19      0          0          0          0
28178            39.90      0          0          0          0
28181            41.05      0          0          0          0
28084            41.15      0          0          0          0
28087            40.65      0          0          0          0
28093            41.50      0          0          0          0
28095            43.50      0          0          0          0
28389            40.85      0          0          0          0
77287            41.00      0          0          0          0
27287            41.00      0          0          0          0
27687            40.45      0          0          0          0
29166            39.40      0          0          0          0
98566            39.70      0          0          0          0
29665            39.50      0          0          0          0
27566            39.00      0          0          0          0
28572            39.65      0          0          0          0
28566            39.70      0          0          0          0
98572            39.65      0          0          0          0
28878            39.85      0          0          0          0
29178            39.85      0          0          0          0
98878            39.85      0          0          0          0
29278            39.90      0          0          0          0
28881            40.02      0          0          0          0
28884            40.75      0          0          0          0
29284            41.05      0          0          0          0
29584            41.15      0          0          0          0
28887            41.15      0          0          0          0
29287            41.15      0          0          0          0
29687            41.20      0          0          0          0
29688            41.00      0          0          0          0
29685            41.30      0          0          0          0
28487            40.80      0          0          0          0
27165            35.45      0          0          0          0
26863            39.34      0          0          0          0
26063            40.41      0          0          0          0
96060            40.10      0          0          0          0
26663            39.48      0          0          0          0
26660            39.50      0          0          0          0
26664            39.60      0          0          0          0
26665            39.78      0          0          0          0
26563            39.98      0          0          0          0
96560            39.50      0          0          0          0
26266            41.00      0          0          0          0
26560            39.50      0          0          0          0
26860            39.59      0          0          0          0
27563            38.89      0          0          0          0
97560            38.56      0          0          0          0
98060            38.78      0          0          0          0
28060            38.78      0          0          0          0
28063            39.34      0          0          0          0
88563            39.80      0          0          0          0
29163            39.00      0          0          0          0
98563            39.80      0          0          0          0
29160            38.88      0          0          0          0
29164            39.00      0          0          0          0
28460            38.92      0          0          0          0
28563            39.80      0          0          0          0
27560            38.56      0          0          0          0
26060            40.10      0          0          0          0
26866            40.00      0          0          0          0
27172            39.85      0          0          0          0
26672            40.00      0          0          0          0
97172            39.85      0          0          0          0
27572            39.60      0          0          0          0
26678            42.00      0          0          0          0
26681            43.50      0          0          0          0
26784            43.00      0          0          0          0
27178            40.25      0          0          0          0
27578            39.95      0          0          0          0
97178            40.25      0          0          0          0
26881            40.85      0          0          0          0
27282            40.45      0          0          0          0
27582            41.85      0          0          0          0
27684            40.95      0          0          0          0
27284            40.85      0          0          0          0
27084            41.75      0          0          0          0
87287            41.00      0          0          0          0
27690            41.80      0          0          0          0
27693            44.20      0          0          0          0
27695            50.00      0          0          0          0
27293            49.00      0          0          0          0
27493            44.20      0          0          0          0
27890            41.50      0          0          0          0
87690            41.80      0          0          0          0
28191            41.00      0          0          0          0
28390            41.00      0          0          0          0
27190            45.40      0          0          0          0
27089            44.80      0          0          0          0
26089            50.80      0          0          0          0
27296            58.50      0          0          0          0
28478            39.95      0          0          0          0
28481            40.50      0          0          0          0
96881            40.85      0          0          0          0
28081            41.10      0          0          0          0
28590            40.50      0          0          0          0
28493            40.95      0          0          0          0
28490            40.75      0          0          0          0
28495            41.65      0          0          0          0
28494            41.00      0          0          0          0
28893            40.95      0          0          0          0
29293            40.65      0          0          0          0
29693            41.20      0          0          0          0
88881            40.02      0          0          0          0
29281            40.00      0          0          0          0
98881            40.02      0          0          0          0
29681            40.50      0          0          0          0
29684            40.50      0          0          0          0
29290            40.55      0          0          0          0
29690            40.85      0          0          0          0
29678            40.50      0          0          0          0
29289            40.60      0          0          0          0
28890            40.45      0          0          0          0
28790            40.50      0          0          0          0
28895            41.45      0          0          0          0
28894            40.95      0          0          0          0
29295            41.15      0          0          0          0
89293            40.65      0          0          0          0
88893            40.95      0          0          0          0

[CONDUITS]
;;Name           From             To               Length     Roughness  InOffset   OutOffset  InitFlow   MaxFlow
;;-------------- ---------------- ---------------- ---------- ---------- ---------- ---------- ---------- ----------
10               10               18044            250.00     0.0150     14.41      2.50       0          0
12               12               18054            250.00     0.0150     25.50      22.32      0          0
18               18               16410            250.00     0.0150     -1.86      24.25      0          0
19               16412            19               250.00     0.0150     24.40      -1.74      0          0
20               13666            20               250.00     0.0150     36.64      22.22      0          0
23               12881            23               250.00     0.0150     38.70      27.82      0          0
24               24               14809            250.00     0.0150     22.00      11.00      0          0
25               25               14811            250.00     0.0150     -4.13      11.38      0          0
26               14812            26               250.00     0.0150     11.68      -3.81      0          0
27               27               14833            250.00     0.0150     27.50      18.46      0          0
28               28               14839            250.00     0.0150     28.63      19.72      0          0
30               30               13200            250.00     0.0150     24.35      10.43      0          0
31               31               18027            250.00     0.0150     27.20      -2.60      0          0
32               32               18036            250.00     0.0150     21.04      -1.80      0          0
34               13642            34               250.00     0.0150     31.20      19.11      0          0
35               16442            35               250.00     0.0150     26.73      19.77      0          0
1000             18000            1                250.00     0.0150     -10.53     -10.57     0          0
1100             18003            18000            630.00     0.0150     -10.37     -10.53     0          0
1110             18009            18003            1325.00    0.0150     -10.03     -10.37     0          0
1115             18012            18009            710.00     0.0150     -9.87      -10.03     0          0
1120             18018            18012            1325.00    0.0150     -5.20      -5.86      0          0
1125             18024            18018            665.00     0.0150     -4.87      -5.20      0          0
1127             18027            18024            600.00     0.0150     -4.54      -4.87      0          0
1130             18036            18027            1345.00    0.0150     -3.80      -4.54      0          0
1140             18042            18036            1240.00    0.0150     -3.08      -3.80      0          0
1145             18044            18042            400.00     0.0150     -3.08      -3.25      0          0
1155             17954            18046            840.00     0.0150     27.96      27.60      0          0
1160             17960            17954            475.00     0.0150     28.17      27.96      0          0
1300             18054            18044            840.00     0.0150     15.32      6.00       0          0
1320             29               15360            450.00     0.0150     16.17      15.04      0          0
1325             13760            14857            925.00     0.0150     22.91      19.50      0          0
1330             11660            13760            2160.00    0.0150     31.69      22.91      0          0
1340             33               11660            785.00     0.0150     34.46      32.10      0          0
1500             19612            18012            1300.00    0.0150     -5.22      -5.87      0          0
1600             19645            18044            1300.00    0.0150     -0.93      -1.58      0          0
1700             16436            32               1350.00    0.0150     25.93      21.04      0          0
1800             11               10               250.00     0.0150     14.48      14.41      0          0
1900             16854            12               940.00     0.0150     28.78      25.95      0          0
2000             16400            2                670.00     0.0150     23.63      23.38      0          0
2100             16406            16400            1305.00    0.0150     23.96      23.63      0          0
2105             16410            16406            660.00     0.0150     24.25      23.96      0          0
2106             2108             18               650.00     0.0150     -1.74      -1.86      0          0
2110             16427            16412            2650.00    0.0150     24.97      24.40      0          0
2115             16436            16427            1260.00    0.0150     25.93      25.10      0          0
2120             16442            16436            1295.00    0.0150     26.73      25.95      0          0
2125             16445            16442            510.00     0.0150     27.45      26.73      0          0
2130             16854            16445            1160.00    0.0150     28.78      27.45      0          0
2200             13630            16427            2290.00    0.0150     27.25      24.97      0          0
2210             10830            13630            2545.00    0.0150     32.25      28.18      0          0
2300             18046            16445            1370.00    0.0150     27.60      27.40      0          0
2400             13633            13630            640.00     0.0150     28.79      28.00      0          0
2405             13636            13633            630.00     0.0150     29.01      28.79      0          0
2410             13639            13636            640.00     0.0150     30.14      29.01      0          0
2415             13642            13639            640.00     0.0150     30.45      30.14      0          0
2420             13648            13642            665.00     0.0150     30.76      30.45      0          0
2425             13654            13648            565.00     0.0150     32.47      30.76      0          0
2430             13659            13654            490.00     0.0150     33.63      32.47      0          0
2435             21               13659            1020.00    0.0150     36.91      33.63      0          0
2440             12867            13666            850.00     0.0150     37.80      36.99      0          0
2445             22               12867            1330.00    0.0150     38.02      37.80      0          0
2450             12881            22               675.00     0.0150     38.70      38.25      0          0
2455             12884            12881            650.00     0.0150     38.75      38.70      0          0
2500             10836            13636            2600.00    0.0150     34.85      30.80      0          0
2600             31               16427            1350.00    0.0150     26.60      25.10      0          0
3000             14800            3                670.00     0.0150     7.83       5.97       0          0
3100             14806            14800            1305.00    0.0150     10.33      9.00       0          0
3105             14809            14806            660.00     0.0150     11.00      10.33      0          0
3110             14811            14809            350.00     0.0150     11.38      11.00      0          0
3112             26               25               350.00     0.0150     -3.81      -4.13      0          0
3115             14815            14812            650.00     0.0150     12.30      11.68      0          0
3120             14824            14815            1320.00    0.0150     13.63      12.30      0          0
3125             14833            14824            1300.00    0.0150     14.96      13.63      0          0
3130             14839            14833            1270.00    0.0150     16.22      14.96      0          0
3135             14842            14839            640.00     0.0150     16.87      16.22      0          0
3140             14848            14842            590.00     0.0150     17.46      16.87      0          0
3145             14854            14848            575.00     0.0150     18.04      17.46      0          0
3150             14857            14854            550.00     0.0150     18.59      18.04      0          0
3155             14866            14857            1020.00    0.0150     19.63      18.59      0          0
3160             14878            14866            1330.00    0.0150     20.41      19.63      0          0
3165             14881            14878            675.00     0.0150     21.96      20.41      0          0
3170             14884            14881            650.00     0.0150     22.74      21.96      0          0
3175             14890            14884            1415.00    0.0150     24.51      22.74      0          0
3180             13293            14890            1940.00    0.0150     27.08      24.51      0          0
3200             13200            14800            1380.00    0.0150     8.58       7.83       0          0
3210             11600            13200            1365.00    0.0150     9.46       8.58       0          0
3250             13206            30               1305.00    0.0150     26.67      25.63      0          0
3260             13209            13206            660.00     0.0150     27.34      26.67      0          0
3300             13209            24               1380.00    0.0150     24.45      22.00      0          0
3310             11609            13209            1365.00    0.0150     27.42      24.85      0          0
3400             13212            14812            1390.00    0.0150     15.38      13.03      0          0
3450             13615            14815            1010.00    0.0150     18.67      16.53      0          0
3455             13215            13615            370.00     0.0150     19.32      18.67      0          0
3460             12317            13215            1300.00    0.0150     22.00      19.32      0          0
3465             11221            12317            1450.00    0.0150     25.82      23.00      0          0
3470             11224            11221            515.00     0.0150     28.04      26.35      0          0
3475             10830            11224            790.00     0.0150     29.71      28.04      0          0
3480             10833            10830            640.00     0.0150     30.80      29.71      0          0
3485             10836            10833            640.00     0.0150     32.32      31.20      0          0
3500             13633            27               925.00     0.0150     28.79      27.50      0          0
3550             13639            28               925.00     0.0150     30.14      28.63      0          0
3600             34               14842            925.00     0.0150     19.11      17.87      0          0
3650             16442            14842            1365.00    0.0150     19.77      17.87      0          0
3700             20               14866            920.00     0.0150     22.22      20.88      0          0
3750             12878            14878            1755.00    0.0150     28.50      23.92      0          0
3755             12478            12878            395.00     0.0150     29.36      28.50      0          0
3760             12481            12478            675.00     0.0150     30.51      29.36      0          0
3765             10881            12481            1210.00    0.0150     32.04      30.51      0          0
3770             10887            10881            1300.00    0.0150     32.96      32.04      0          0
3775             10490            10887            1050.00    0.0150     35.60      33.46      0          0
3800             23               14881            1755.00    0.0150     27.82      24.35      0          0
4000             10066            4                700.00     0.0150     34.78      34.39      0          0
4100             10866            10066            685.00     0.0150     35.14      34.78      0          0
4110             11666            10866            690.00     0.0150     35.40      35.14      0          0
4120             12866            11666            970.00     0.0150     36.14      35.40      0          0
4125             12867            12866            250.00     0.0150     37.80      36.14      0          0
4130             13666            12866            850.00     0.0150     36.64      36.14      0          0
11102            28090            28190            75.00      0.0150     32.19      32.11      0          0
11462            26087            26987            780.00     0.0150     47.91      35.15      0          0
11656            29566            29670            500.00     0.0150     31.15      29.06      0          0
11657            29670            29672            175.00     0.0150     29.06      31.48      0          0
11658            29672            29172            410.00     0.0150     31.48      29.32      0          0
11660            28172            28066            665.00     0.0150     28.74      28.52      0          0
11670            28178            28172            655.00     0.0150     29.11      28.74      0          0
11680            28181            28178            600.00     0.0150     29.69      29.11      0          0
11690            28084            28181            710.00     0.0150     30.70      29.69      0          0
11700            28087            28084            700.00     0.0150     31.28      30.70      0          0
11701            28190            28087            715.00     0.0150     32.11      31.28      0          0
11703            28093            28090            570.00     0.0150     32.25      32.19      0          0
11704            28095            28093            225.00     0.0150     33.87      32.75      0          0
11706            28389            28190            265.00     0.0150     32.50      32.11      0          0
11800a           77287            27287            15.00      0.0150     29.11      24.57      0          0