;; SWMM5 .inp converted from XPSWMM .xp file
;; Generated by XPSWMM Card Reader
;; Source format: XP_CARD | Original title: (none)

[TITLE]
;;Project Title/Notes
Converted from XPSWMM .xp file

[OPTIONS]
FLOW_UNITS           CFS
INFILTRATION         HORTON
FLOW_ROUTING         DYNWAVE
LINK_OFFSETS         DEPTH
MIN_SLOPE            0.0
ALLOW_PONDING        NO
SKIP_STEADY_STATE    NO
INERTIAL_DAMPING     PARTIAL
NORMAL_FLOW_LIMITED  BOTH

[JUNCTIONS]
;;Name           Elev       MaxDepth   InitDepth  SurDepth   Aponded
;;-------------- ---------- ---------- ---------- ---------- ----------
214              0          0          0          0          0
215              0          0          0          0          0
217              0          0          0          0          0
219              0          0          0          0          0
220              0          0          0          0          0
222              0          0          0          0          0
224              0          0          0          0          0
226              0          0          0          0          0
227              0          0          0          0          0
229              0          0          0          0          0
231              0          0          0          0          0
233              0          0          0          0          0
234              0          0          0          0          0
236              0          0          0          0          0
238              0          0          0          0          0
240              0          0          0          0          0
241              0          0          0          0          0
243              0          0          0          0          0
244              0          0          0          0          0
246              0          0          0          0          0
248              0          0          0          0          0

[CONDUITS]
;;Name           From             To               Length     Roughness  InOffset   OutOffset  InitFlow   MaxFlow
;;-------------- ---------------- ---------------- ---------- ---------- ---------- ---------- ---------- ----------
216              ?                ?                0          0          0          0          0          0
218              ?                ?                0          0          0          0          0          0
221              ?                ?                0          0          0          0          0          0
223              ?                ?                0          0          0          0          0          0
225              ?                ?                0          0          0          0          0          0
228              ?                ?                0          0          0          0          0          0
230              ?                ?                0          0          0          0          0          0
232              ?                ?                0          0          0          0          0          0
235              ?                ?                0          0          0          0          0          0
237              ?                ?                0          0          0          0          0          0
239              ?                ?                0          0          0          0          0          0
242              ?                ?                0          0          0          0          0          0
245              ?                ?                0          0          0          0          0          0
247              ?                ?                0          0          0          0          0          0
249              ?                ?                0          0          0          0          0          0
250              ?                ?                0          0          0          0          0          0

[XSECTIONS]
;;Link           Shape        Geom1      Geom2      Geom3      Geom4      Barrels
;;-------------- ------------ ---------- ---------- ---------- ---------- ----------
216              CIRCULAR     0          0          0          0          1
218              CIRCULAR     0          0          0          0          1
221              CIRCULAR     0          0          0          0          1
223              CIRCULAR     0          0          0          0          1
225              CIRCULAR     0          0          0          0          1
228              CIRCULAR     0          0          0          0          1
230              CIRCULAR     0          0          0          0          1
232              CIRCULAR     0          0          0          0          1
235              CIRCULAR     0          0          0          0          1
237              CIRCULAR     0          0          0          0          1
239              CIRCULAR     0          0          0          0          1
242              CIRCULAR     0          0          0          0          1
245              CIRCULAR     0          0          0          0          1
247              CIRCULAR     0          0          0          0          1
249              CIRCULAR     0          0          0          0          1
250              CIRCULAR     0          0          0          0          1

[LOSSES]
;;Link           Inlet      Outlet     Average    Flap Gate
;;-------------- ---------- ---------- ---------- ----------
216              0          0          0          NO
218              0          0          0          NO
221              0          0          0          NO
223              0          0          0          NO
225              0          0          0          NO
228              0          0          0          NO
230              0          0          0          NO
232              0          0          0          NO
235              0          0          0          NO
237              0          0          0          NO
239              0          0          0          NO
242              0          0          0          NO
245              0          0          0          NO
247              0          0          0          NO
249              0          0          0          NO
250              0          0          0          NO

[COORDINATES]
;;Node           X-Coord            Y-Coord
;;-------------- ------------------ ------------------
214              70.77              -0.50             
215              99.50              -0.50             
217              99.50              19.50             
219              71.93              34.84             
220              83.76              47.41             
222              69.09              59.19             
224              98.91              39.55             
226              70.04              69.01             
227              98.91              68.22             
229              99.39              87.46             
231              71.46              87.07             
233              111.70             20.31             
234              112.64             5.00              
236              133.00             5.00              
238              133.00             21.88             
240              111.22             38.38             
241              126.84             37.98             
243              112.17             56.83             
244              126.84             57.23             
246              138.68             38.38             
248              140.10             57.62             

[MAP]
DIMENSIONS 69.09 -0.50 140.10 87.46
Units      None

[REPORT]
INPUT            YES
SUBCATCHMENTS    ALL
NODES            ALL
LINKS            ALL



