;; SWMM5 .inp converted from XPSWMM .xp file
;; Generated by XPSWMM Card Reader
;; Source format: XP_CARD | Original title: EXTRAN RUN - 100YR / 24HR  -  EXISTING CONDITIONS

[TITLE]
;;Project Title/Notes
EXTRAN RUN - 100YR / 24HR  -  EXISTING CONDITIONS

[OPTIONS]
FLOW_UNITS           CFS
INFILTRATION         HORTON
FLOW_ROUTING         DYNWAVE
LINK_OFFSETS         DEPTH
MIN_SLOPE            0.0
ALLOW_PONDING        NO
SKIP_STEADY_STATE    NO
ROUTING_STEP         00:00:02
VARIABLE_STEP        0.75
INERTIAL_DAMPING     PARTIAL
NORMAL_FLOW_LIMITED  BOTH
MAX_TRIALS           4
HEAD_TOLERANCE       0.0033

[JUNCTIONS]
;;Name           Elev       MaxDepth   InitDepth  SurDepth   Aponded
;;-------------- ---------- ---------- ---------- ---------- ----------
830              122.79     0          0.96       0          0
826              124.75     0          0          0          0
831              122.77     0          0.98       0          0
983              120.30     0          0          0          0
965              121.00     0          0          0          0
985              119.00     0          0          0          0
821              126.80     0          0          0          0
967              119.50     0          2.20       0          0
990              125.40     0          0          0          0
807              128.49     0          0          0          0
806              128.50     0          0          0          0
805              130.00     0          0          0          0
801              129.01     0          0          0          0
992              124.30     0          0          0          0
993              122.50     0          0          0          0
934              127.00     0          0          0          0
810              129.04     0          0          0          0
9310             0          0          0          0          0
9320             0          0          0          0          0
909              127.00     0          0          0          0
936              124.50     0          0          0          0
9140             0          0          0          0          0
915              126.00     0          0          0          0
924              121.40     0          0          0          0
938              124.30     0          0          0          0
926              120.00     0          0          0          0
935              127.00     0          0          0          0
950              119.30     0          0.20       0          0
941              119.20     0          0          0          0
940              119.30     0          0          0          0
954              117.80     0          1.80       0          0
948              114.00     0          3.50       0          0
953              118.40     0          1.20       0          0
972              113.88     0          3.98       0          0
974              114.00     0          4.20       0          0
975              114.00     0          4.50       0          0
989              111.70     0          1.10       0          0
978              112.00     0          9.55       0          0
947              116.00     0          2.80       0          0
903              123.10     0          0          0          0
906              119.70     0          0          0          0
927              120.00     0          0          0          0
902              126.40     0          0          0          0
802              129.00     0          0          0          0
803              129.50     0          0          0          0
804              129.50     0          0          0          0
809              129.05     0          0          0          0
811              129.03     0          0          0          0
812              129.02     0          0          0          0
813              129.01     0          0          0          0
815              129.00     0          0          0          0
843              130.00     0          0          0          0
844              130.00     0          0          0          0
845              130.00     0          0          0          0
819              127.70     0          0          0          0
822              126.50     0          0          0          0
823              125.30     0          0          0          0
824              125.30     0          0          0          0
825              125.65     0          0          0          0
827              121.75     0          0.50       0          0
828              121.56     0          0.69       0          0
829              121.54     0          0.71       0          0
899              122.75     0          1.00       0          0
901              127.90     0          0          0          0
904              123.00     0          0          0          0
905              120.70     0          0          0          0
925              119.50     0          0          0          0
907              125.90     0          0          0          0
911              125.50     0          0          0          0
918              124.60     0          0          0          0
916              125.00     0          0          0          0
917              124.60     0          0          0          0
919              124.10     0          0          0          0
920              121.80     0          0          0          0
921              124.00     0          0          0          0
922              123.90     0          0          0          0
923              122.60     0          0          0          0
929              128.00     0          0          0          0
933              127.00     0          0          0          0
942              119.60     0          0          0          0
943              119.10     0          0.60       0          0
945              120.00     0          2.80       0          0
946              118.00     0          2.00       0          0
976              116.00     0          4.90       0          0
994              119.30     0          0          0          0
951              118.50     0          1.00       0          0
952              118.00     0          1.10       0          0
956              122.00     0          0          0          0
957              120.00     0          0          0          0
958              118.10     0          0          0          0
959              119.10     0          0          0          0
960              118.10     0          1.10       0          0
966              120.00     0          0.60       0          0
968              113.30     0          3.90       0          0
970              113.44     0          3.94       0          0
971              113.46     0          3.96       0          0
973              113.60     0          4.00       0          0
979              122.50     0          0          0          0
980              121.50     0          0          0          0
981              119.50     0          0          0          0
982              119.00     0          0          0          0
987              116.70     0          0          0          0
998              19.35      0          9.65       0          0
999              19.35      0          9.65       0          0

[STORAGE]
;;Name           Elev       MaxDepth   InitDepth  Shape      Curve/Params
;;-------------- ---------- ---------- ---------- ---------- ----------
726              124.50     0          0          FUNCTIONAL 0 0          0
701              123.10     0          0          FUNCTIONAL 0 0          0
962              123.00     0          0          FUNCTIONAL 0 0          0
963              123.00     0          0          FUNCTIONAL 0 0          0
964              122.00     0          0          FUNCTIONAL 0 0          0
702              122.00     0          0          FUNCTIONAL 0 0          0
703              118.00     0          0          FUNCTIONAL 0 0          0
969              119.00     0          3.92       FUNCTIONAL 0 0          0
986              116.00     0          0          FUNCTIONAL 0 0          0
704              114.00     0          0.50       FUNCTIONAL 0 0          0
961              117.20     0          1.50       FUNCTIONAL 0 0          0
835              126.00     0          0          FUNCTIONAL 0 0          0
834              131.00     0          0          FUNCTIONAL 0 0          0
816              129.00     0          0          FUNCTIONAL 0 0          0
817              128.00     0          0          FUNCTIONAL 0 0          0
818              128.00     0          0          FUNCTIONAL 0 0          0
820              127.00     0          0          FUNCTIONAL 0 0          0
991              125.00     0          0          FUNCTIONAL 0 0          0
932              127.00     0          0          FUNCTIONAL 0 0          0
842              129.00     0          0          FUNCTIONAL 0 0          0
928              128.00     0          0          FUNCTIONAL 0 0          0
931              127.00     0          0          FUNCTIONAL 0 0          0
912              129.00     0          0          FUNCTIONAL 0 0          0
913              126.00     0          0          FUNCTIONAL 0 0          0
846              119.00     0          0          FUNCTIONAL 0 0          0
908              127.00     0          0          FUNCTIONAL 0 0          0
914              127.00     0          0          FUNCTIONAL 0 0          0
847              125.00     0          0          FUNCTIONAL 0 0          0
937              124.00     0          0          FUNCTIONAL 0 0          0
995              121.00     0          0          FUNCTIONAL 0 0          0
939              121.00     0          0          FUNCTIONAL 0 0          0
706              117.00     0          0.50       FUNCTIONAL 0 0          0
910              124.00     0          0.20       FUNCTIONAL 0 0          0
949              113.00     0          4.30       FUNCTIONAL 0 0          0
705              114.00     0          4.00       FUNCTIONAL 0 0          0
988              112.00     0          1.00       FUNCTIONAL 0 0          0
944              121.00     0          1.40       FUNCTIONAL 0 0          0
728              114.00     0          1.80       FUNCTIONAL 0 0          0
727              112.00     0          3.80       FUNCTIONAL 0 0          0
833              131.00     0          0          FUNCTIONAL 0 0          0
832              134.00     0          0          FUNCTIONAL 0 0          0
808              129.20     0          0          FUNCTIONAL 0 0          0
814              131.00     0          0          FUNCTIONAL 0 0          0
725              126.00     0          0          FUNCTIONAL 0 0          0
836              125.00     0          0          FUNCTIONAL 0 0          0
838              126.00     0          0.90       FUNCTIONAL 0 0          0
724              127.00     0          0          FUNCTIONAL 0 0          0
723              126.00     0          0          FUNCTIONAL 0 0          0
722              125.00     0          0          FUNCTIONAL 0 0          0
930              128.00     0          0          FUNCTIONAL 0 0          0
996              119.80     0          0          FUNCTIONAL 0 0          0
997              119.00     0          0          FUNCTIONAL 0 0          0
955              122.00     0          0          FUNCTIONAL 0 0          0
729              113.00     0          3.80       FUNCTIONAL 0 0          0
977              113.00     0          9.30       FUNCTIONAL 0 0          0
984              119.00     0          0          FUNCTIONAL 0 0          0

[CONDUITS]
;;Name           From             To               Length     Roughness  InOffset   OutOffset  InitFlow   MaxFlow
;;-------------- ---------------- ---------------- ---------- ---------- ---------- ---------- ---------- ----------
9802             802              803              500.00     0.0350     17.00      16.50      0          0
9803             803              804              600.00     0.0500     16.50      16.50      0          0
1102             2102             804              250.00     0.0169     0          0          0          0
9804             804              805              700.00     0.0500     16.50      16.01      0          0
1145             2145             806              400.00     0.0270     0          0.50       0          0
9806             806              807              700.00     0.0500     15.50      15.49      0          0
9808             808              821              1000.00    0.0500     14.20      10.80      0          0
9801             809              801              500.00     0.0350     17.05      17.01      0          0
9809             809              810              1100.00    0.0500     17.05      17.04      0          0
1109             2109             811              400.00     0.0240     0.50       0.50       0          0
9811             811              812              450.00     0.0500     17.03      17.02      0          0
1111             813              814              400.00     0.0170     17.01      17.00      0          0
1115             814              815              400.00     0.0240     17.00      15.20      0          0
1120             2120             3120             240.00     0.0152     0          0          0          0
1121             2121             3121             430.00     0.0150     0          0          0          0
1122             2122             3122             410.00     0.0152     0          0          0          0
1123             2123             3123             330.00     0.0158     0          0          0          0
1124             2124             816              400.00     0.0200     0          0          0          0
1138             817              819              370.00     0.0162     14.60      13.90      0          0
1133             2133             819              630.00     0.0148     0          0          0          0
1139             2139             3139             400.00     0.0210     0          0          0          0
1143             2143             3143             650.00     0.0150     0          1.00       0          0
9821             821              822              700.00     0.0500     10.80      10.50      0          0
1148             2148             3148             400.00     0.0290     0.60       0.09       0          0
9823             823              824              900.00     0.0500     10.80      10.30      0          0
1163             834              824              200.00     0.0141     16.50      16.30      0          0
9824             824              825              620.00     0.0500     10.30      9.90       0          0
1167             835              725              500.00     0.0168     11.00      10.00      0          0
1171             725              825              200.00     0.0146     10.00      9.90       0          0
9825             825              826              500.00     0.0500     9.90       9.00       0          0
1173             836              826              250.00     0.0150     9.50       9.00       0          0
1174             2174             3174             300.00     0.0151     0          0          0          0
1176             2176             3176             520.00     0.0189     0          0          0          0
9827             827              828              500.00     0.0350     8.00       7.81       0          0
1177             2177             829              400.00     0.0204     0          0          0          0
9829             829              830              500.00     0.0350     7.79       7.54       0          0
1181             838              830              200.00     0.0127     7.60       7.54       0          0
9830             830              831              600.00     0.0350     7.54       7.52       0          0
9831             831              899              600.00     0.0350     7.52       7.50       0          0
1391             724              901              200.00     0.0162     14.00      13.70      0          0
9901             901              902              2000.00    0.0500     13.70      8.40       0          0
1393             913              902              280.00     0.0223     8.60       8.40       0          0
9902             902              903              750.00     0.0500     8.40       7.51       0          0
9903             903              904              200.00     0.0500     7.51       7.50       0          0
1396             2396             905              200.00     0.0258     0          0          0          0
9905             905              906              600.00     0.0500     7.30       5.90       0          0
9906             906              925              400.00     0.0500     5.90       4.80       0          0
1315             931              907              200.00     0.0179     13.80      13.40      0          0
9907             907              911              1100.00    0.0500     13.40      11.50      0          0
1323             908              909              330.00     0.0202     13.10      12.30      0          0
1324             909              911              410.00     0.0199     12.30      11.50      0          0
1325             722              911              200.00     0.0153     11.90      11.50      0          0
9911             911              918              550.00     0.0500     11.50      10.00      0          0
1348             914              915              470.00     0.0193     10.80      10.40      0          0
1349             915              916              200.00     0.0232     10.40      10.20      0          0
1350             916              917              200.00     0.0217     10.20      10.10      0          0
1351             917              918              200.00     0.0217     10.10      10.00      0          0
1352             2352             919              337.00     0.0234     0          0          0          0
1369             2369             919              755.00     0.0178     0          0          0          0
9919             919              920              550.00     0.0500     9.30       7.00       0          0
1374             2374             921              250.00     0.0255     1.41       0          0          0
9921             921              922              300.00     0.0500     8.40       8.39       0          0
1375             2375             923              200.00     0.0285     0          0          0          0
9923             923              924              800.00     0.0500     7.80       6.60       0          0
1381             995              924              1350.00    0.0133     9.30       6.60       0          0
9924             924              925              1200.00    0.0500     6.60       4.80       0          0
9925             925              926              400.00     0.0500     4.80       3.80       0          0
9926             926              927              300.00     0.0500     3.80       2.80       0          0
9927             927              944              450.00     0.0500     2.80       1.40       0          0
1415             2415             929              900.00     0.0135     0          0          0          0
1420             2420             930              300.00     0.0162     0          0          0          0
1430             2430             935              400.00     0.0152     0          2.11       0          0
1411             932              933              270.00     0.0174     11.10      11.00      0          0
1413             ?                ?                520.00     0.0180     11.00      10.10      0          0
1414             ?                ?                300.00     0.0199     10.10      9.90       0          0
1432             935              936              200.00     0.0248     9.90       6.90       0          0
1436             936              937              300.00     0.0228     7.30       6.20       0          0
1437             937              938              450.00     0.0211     6.20       5.40       0          0
1440             938              939              430.00     0.0213     5.40       5.10       0          0
1442             939              940              320.00     0.0231     5.10       4.80       0          0
9940             940              941              400.00     0.0500     4.80       4.70       0          0
9941             941              942              1100.00    0.0500     4.70       3.10       0          0
1453             1455             1458             300.00     0.0146     0          0          0          0
1457             2457             942              200.00     0.0135     0          0          0          0
9942             942              943              2000.00    0.0500     3.10       2.20       0          0
1461             2461             944              200.00     0.0248     0          0          0          0
9944             944              945              400.00     0.0500     1.40       0          0          0
1466             2466             946              250.00     0.0250     0.81       0          0          0
9946             946              947              550.00     0.0500     0.80       0          0          0
1470             728              947              300.00     0.0150     1.00       0          0          0
9947             947              948              600.00     0.0500     0          -0.70      0          0
9948             948              949              800.00     0.0500     -0.70      -1.50      0          0
1484             2484             3484             204.00     0.0284     0          0          0          0
9990             990              992              700.00     0.0350     9.40       8.30       0          0
9992             992              993              1200.00    0.0350     8.30       6.50       0          0
9993             993              994              250.00     0.0350     3.70       3.30       0          0
1501             2501             950              500.00     0.0179     0          0          0          0
9950             950              951              750.00     0.0500     2.60       1.80       0          0
1507             910              951              400.00     0.0165     2.60       1.80       0          0
9951             951              952              200.00     0.0461     1.80       1.70       0          0
1509             2509             953              200.00     0.0226     0          0          0          0
1513             706              953              360.00     0.0163     2.30       1.60       0          0
9953             953              954              750.00     0.0500     1.60       1.00       0          0
1515             2515             961              250.00     0.0192     0.31       0          0          0
5955             955              956              200.00     0.0157     8.00       7.20       0          0
5956             956              957              278.00     0.0173     7.20       5.10       0          0
5957             957              958              200.00     0.0171     5.10       4.70       0          0
1517             958              959              376.00     0.0190     4.70       4.00       0          0
1518             959              960              336.00     0.0195     4.00       1.70       0          0
1521             960              961              200.00     0.0204     1.70       1.30       0          0
9961             961              972              1250.00    0.0500     2.50       -1.18      0          0
1523             701              962              350.00     0.0149     10.40      10.00      0          0
1524             962              963              368.00     0.0155     10.00      9.40       0          0
1526             963              964              410.00     0.0187     9.40       5.60       0          0
1527             701              702              396.00     0.0146     8.00       6.70       0          0
1528             702              964              350.00     0.0149     6.70       5.60       0          0
1529             964              965              1000.00    0.0177     5.60       3.60       0          0
1530             702              965              420.00     0.0145     4.60       3.60       0          0
1531             965              966              700.00     0.0188     3.60       2.20       0          0
1532             703              966              250.00     0.0160     5.00       4.50       0          0
1534             966              967              850.00     0.0188     2.20       0.60       0          0
1535             703              967              250.00     0.0160     5.00       4.50       0          0
1538             2538             968              350.00     0.0232     0          0          0          0
9968             968              970              400.00     0.0500     -1.10      -1.14      0          0
1589             969              970              200.00     0.0158     -1.12      -1.14      0          0
9970             970              971              400.00     0.0500     -1.14      -1.16      0          0
1539             704              971              250.00     0.0160     4.00       3.34       0          0
9971             971              972              600.00     0.0500     -1.16      -1.18      0          0
9972             972              973              400.00     0.0500     -1.18      -1.20      0          0
1541             704              973              270.00     0.0157     2.30       1.80       0          0
9973             973              974              850.00     0.0500     -1.20      -1.40      0          0
1543             705              974              270.00     0.0157     -0.90      -1.40      0          0
9974             974              975              1000.00    0.0500     -1.40      -1.70      0          0
1546             705              975              270.00     0.0157     -1.20      -1.70      0          0
1634             729              975              300.00     0.0140     -1.00      -1.70      0          0
9975             975              976              1500.00    0.0500     -1.70      -2.10      0          0
9976             976              977              700.00     0.0500     -2.10      -6.50      0          0
1558             727              977              200.00     0.0200     -1.00      -6.50      0          0
9977             977              978              1750.00    0.0500     -6.50      -6.75      0          0
1189             831              979              400.00     0.0170     11.52      12.00      0          0
9979             979              980              300.00     0.0500     12.00      14.50      0          0
1559             980              981              400.00     0.0170     14.50      13.50      0          0
9981             981              982              650.00     0.0500     11.00      10.40      0          0
1561             982              983              300.00     0.0150     10.40      10.00      0          0
9983             983              984              1300.00    0.0500     10.00      8.70       0          0
1567             2567             985              400.00     0.0240     0          0          0          0
9985             985              986              2350.00    0.0400     8.70       6.60       0          0
1570             2570             3570             400.00     0.0240     0          0          0          0
9987             987              988              1500.00    0.0350     6.50       1.80       0          0
1573             2573             3573             400.00     0.0240     0          0          0          0
9989             989              978              3200.00    0.0350     1.70       0.95       0          0
1576             978              998              208.00     0.0391     -6.75      -6.85      0          0
2576             978              999              208.00     0.0391     -6.75      -6.85      0          0
Dummy            9140             941              33.00      0.0140     0          0          0          0
Dummy            9310             931              33.00      0.0140     0          0          0          0
Dummy            9320             931              33.00      0.0140     0          0          0          0

[ORIFICES]
;;Name           From             To               Type       Offset     Qcoeff     Gated    CloseTime
;;-------------- ---------------- ---------------- ---------- ---------- ---------- -------- ----------
8846             846              902              SIDE       36.00      0.650      NO       0
MUL39            812              813              SIDE       0          0.650      NO       0

[WEIRS]
;;Name           From             To               Type       CrestHt    Qcoeff     Gated    EndCon   EndCoeff   Surcharge
;;-------------- ---------------- ---------------- ---------- ---------- ---------- -------- -------- ---------- ----------
8833             833              801              TRANSVERSE 17.10      1.840      NO       0        0          YES
8847             847              924              TRANSVERSE 16.00      1.840      NO       0        0          YES
9807             807              808              TRANSVERSE 23.59      1.840      NO       0        0          YES
1125             2125             1137             TRANSVERSE 23.50      1.840      NO       0        0          YES