;; SWMM5 .inp converted from XPSWMM .xp file
;; Generated by XPSWMM Card Reader
;; Source format: XP_CARD | Original title: (none)

[TITLE]
;;Project Title/Notes
Converted from XPSWMM .xp file

[OPTIONS]
FLOW_UNITS           CFS
INFILTRATION         HORTON
FLOW_ROUTING         DYNWAVE
LINK_OFFSETS         DEPTH
MIN_SLOPE            0.0
ALLOW_PONDING        NO
SKIP_STEADY_STATE    NO
ROUTING_STEP         00:00:300
VARIABLE_STEP        0.75
INERTIAL_DAMPING     PARTIAL
NORMAL_FLOW_LIMITED  BOTH

[JUNCTIONS]
;;Name           Elev       MaxDepth   InitDepth  SurDepth   Aponded
;;-------------- ---------- ---------- ---------- ---------- ----------
GL-1             949.00     0          0.89       0          0
GL-1             945.00     0          0.99       0          0
GL1-POND         940.00     0          0.77       0          0
TB-1             940.00     0          0          0          0
ML-1             959.00     0          0          0          0
SLL-1            945.00     0          2.96       0          0
SLL-1            940.00     0          0          0          0
GL-1             0          0          0          0          0
ML-1             0          0          0          0          0
SLL-1            945.00     0          0          0          0
LW-1             940.00     0          0          0          0
LW-1             1025.00    0          0          0          0
CL-3             945.00     0          0          0          0
CL-4             945.00     0          0          0          0
CL-5             982.00     0          1.32       0          0
CL-1             982.00     0          0          0          0
CL-2             955.00     0          0          0          0
CL-1             0          0          0          0          0
Hwy7             941.00     0          0.65       0          0
CL-5             940.00     0          0          0          0
BB-4             941.00     0          0          0          0
BB-3             939.00     0          3.00       0          0
BB-1             941.00     0          0          0          0
BB-2             941.00     0          0          0          0
BB-4             946.00     0          9.00       0          0
BB-4.1           937.00     0          0          0          0
FL-1             956.00     0          0          0          0
FL-3             957.00     0          9.00       0          0
FL-2             940.00     0          0          0          0
FR               936.00     0          0.60       0          0
PL-1             971.00     0          0          0          0
PL-3             971.00     0          0          0          0
PL-4             961.00     0          7.10       0          0
PL-2             961.00     0          0          0          0
SB-1             958.00     0          0          0          0
SB-2             958.00     0          0          0          0
WB-2.2           945.00     0          0.59       0          0
GB-1.1           945.00     0          0          0          0
GB-2             947.00     0          8.00       0          0
MC-10            1029.00    0          8.60       0          0
WB-2             943.00     0          1.30       0          0
WB-2.1           945.00     0          0          0          0
GB               945.00     0          0          0          0
CRS-1            962.00     0          0          0          0
CRS-2            965.00     0          0          0          0
CRS-1            962.00     0          0          0          0
CRS-2            0          0          0          0          0
EU-3             933.00     0          1.70       0          0
EU-2             972.00     0          0          0          0
EU-1             972.00     0          0          0          0
EU-4             935.00     0          0          0          0
EU-1             972.50     0          0          0          0
CLC-4            972.00     0          1.04       0          0
CLC-5            970.00     0          0          0          0
CLC-5            940.00     0          0          0          0
CLC-5            940.00     0          0          0          0
CLC-5            940.00     0          0          0          0
CLC-5            946.85     0          0          0          0
CLC-5            964.00     0          0          0          0
CLC-3            990.00     0          0          0          0
CLC-2            990.00     0          0          0          0
CLC-1            984.00     0          0.81       0          0
CLC-5a           982.00     0          0          0          0
CLC-5a           986.00     0          0          0          0
DL-7             967.00     0          0          0          0
DL-7             1000.00    0          0          0          0
DL-7             1000.00    0          0          0          0
DL-7             1000.00    0          0          0          0
DL-5             951.00     0          0          0          0
DL-5             945.00     0          0          0          0
DL-5             945.00     0          0          0          0
DL-5             945.00     0          0          0          0
DL-5             945.00     0          0          0          0
DL-5             945.00     0          0          0          0
DL-5             945.00     0          0          0          0
DL-7             1000.00    0          0          0          0
LMC-3            965.00     0          0          0          0
LMC-2            965.00     0          0          0          0
LMC-10           972.00     0          10.50      0          0
LMC-1            965.00     0          0          0          0
LMC-5            985.00     0          0          0          0
LMC-6            965.00     0          0          0          0
LMC-7            970.00     0          0          0          0
LMC-8            970.00     0          0          0          0
LV-3             950.00     0          0          0          0
LV-2             957.00     0          1.50       0          0
LV-6             953.00     0          9.00       0          0
LMC-9            957.00     0          0.70       0          0
LV-4             953.00     0          0          0          0
LV-5             950.00     0          0.50       0          0
LMC-4            963.00     0          0          0          0
LV-1             985.00     0          1.50       0          0
LMC-9            957.00     0          0          0          0
LV-3epond        947.00     0          1.00       0          0
LV-4             945.00     0          0          0          0
LV-4             955.00     0          0          0          0
LV-4             955.00     0          0          0          0
LV-4             953.00     0          0          0          0
LV-4             945.00     0          0          0          0
LV-4             945.00     0          0          0          0
LV-4             945.00     0          0          0          0
LMC-10           955.00     0          0          0          0
LV-4             945.00     0          0          0          0
LV-4             945.00     0          0          0          0
LV-4             945.00     0          0          0          0
LV-4             949.00     0          0          0          0
LV-4             940.00     0          0          0          0
LV-4             940.00     0          0          0          0
LV-4             945.00     0          0          0          0
LV-4             945.00     0          0          0          0
SL-1             1000.00    0          0          0          0
SL-2             990.00     0          0          0          0
SL-3             973.00     0          11.10      0          0
SL-4             965.00     0          0.20       0          0
SL-4             955.00     0          0          0          0
SL-4             955.00     0          0          0          0
LM-all           1021.00    0          9.00       0          0
HB-LM            941.00     0          9.00       0          0
HB-2             970.00     0          0          0          0
HB-3             966.00     0          0          0          0
HB-5             960.00     0          0          0          0
HB-6             956.00     0          1.40       0          0
HB-1             940.00     0          1.40       0          0
HB-4             956.00     0          1.40       0          0
Upper-DN         959.00     0          9.00       0          0
SLL-LM           1021.00    0          9.00       0          0
LL-5             945.00     0          38.10      0          0
LL-3             965.00     0          2.30       0          0
LL-1             965.00     0          0          0          0
LL-3             950.00     0          0          0          0
LL-4             940.00     0          0          0          0
LL-2             965.00     0          0          0          0
LL-5CR110m       934.24     0          0          0          0
LST-1            939.35     0          4.00       0          0
LL-3             954.00     0          0          0          0
LL-3             955.00     0          0          0          0
LL-1             959.62     0          0          0          0
RB-1             950.00     0          3.40       0          0
RB-3             950.00     0          1.90       0          0
RB-LM            953.50     0          9.00       0          0
RB-2             950.00     0          2.00       0          0
MP-1             950.00     0          0          0          0
GL-1.1           945.00     0          0          0          0
CB-DN            971.00     0          9.00       0          0
Temp             1028.50    0          0          0          0
LLC-22           998.00     0          0          0          0
LLC-23           992.00     0          0          0          0
LLC-24           996.00     0          2.05       0          0
LLC-41           996.00     0          1.88       0          0
LLC-10           996.70     0          5.70       0          0
LLC-11           995.90     0          0          0          0
LLC-12           981.69     0          0          0          0
LLC-13           972.20     0          0          0          0
LLC-14           960.07     0          0          0          0
LLC-15           954.00     0          1.00       0          0
LLC-16           982.00     0          0          0          0
LLC-17           985.00     0          0          0          0
LLC-18           985.00     0          0          0          0
LLC-19           996.00     0          0          0          0
LLC-7            990.00     0          0          0          0
LLC-8            991.00     0          0          0          0
LLC-9            991.00     0          0          0          0
LLC-1            1004.98    0          0          0          0
LLC-2            995.00     0          3.18       0          0
LLC-4            995.00     0          0.82       0          0
LLC-6            970.00     0          0          0          0
LLC-5            970.00     0          0          0          0
LLC-3            985.00     0          0          0          0
LLC-25           995.78     0          0          0          0
LLC-43           971.31     0          0          0          0
LLC-47           952.80     0          0.42       0          0
LLC-50           950.00     0          3.00       0          0
LLC-52           940.00     0          2.00       0          0
LLC-53           939.40     0          7.60       0          0
LLC-46           2000.00    0          0.40       0          0
LLC-44           2000.00    0          0          0          0
LLC-45           966.00     0          0          0          0
LLC-42           2000.00    0          0          0          0
LLC-39           2000.00    0          0          0          0
LLC-48           936.00     0          0          0          0
LLC-38           958.00     0          0.50       0          0
LLC-51           936.00     0          0          0          0
LLC-49           936.00     0          0          0          0
LLC-25           992.53     0          0          0          0
LLC-25mh1        982.54     0          0          0          0
LLC-22           998.00     0          0          0          0
LLC-11           992.37     0          0          0          0
LLC-9            980.00     0          0          0          0
LLC-9            981.69     0          0          0          0
LLC-1pond        1003.70    0          0          0          0
LLC-1            1005.92    0          0          0          0
LLC-2            995.00     0          0          0          0
LLC-4            970.00     0          0          0          0
LLC-6            970.00     0          0          0          0
LLC-38           947.00     0          0          0          0
LLC-38s          947.00     0          4.50       0          0
LLC-45           2000.00    0          0          0          0
LLC-41           953.68     0          0          0          0
LLC-41           953.27     0          0          0          0
LLC-41           955.90     0          0          0          0
LLC-41           971.31     0          0          0          0
LLC-43           957.44     0          0          0          0
LLC-47           953.74     0          0          0          0
LLC-43           950.40     0          0          0          0
LLC-43           955.90     0          0          0          0
LLC-43FN1        951.39     0          0          0          0
LLC-43           957.40     0          0          0          0
LLC-41           955.65     0          0          0          0
LLC-41           956.10     0          0          0          0
LLC-41           957.60     0          0          0          0
LLC-41           956.70     0          0          0          0
LLC-47           953.00     0          0          0          0
LLC-47           955.10     0          0          0          0
LLC-20           2000.00    0          0          0          0
LLC-20mh1        2000.00    0          0          0          0
LLC-28           1004.00    0          0          0          0
LLC-30           1007.00    0          0          0          0
LLC-30           987.50     0          0          0          0
LLC-38           958.42     0          0          0          0
LLC-37           978.00     0          0          0          0
LLC-28           1005.59    0          0          0          0
LLC-27           1013.00    0          0          0          0
LLC-30           1001.70    0          0          0          0
LLC-29           1005.60    0          0          0          0
LLC-41           954.10     0          0          0          0
LLC-47           952.54     0          0          0          0
LLC-47           949.31     0          0          0          0
LLC-47           950.00     0          0          0          0
LLC-47           948.30     0          0          0          0
LLc-47           950.00     0          0          0          0
LLC-50FN2        945.00     0          0          0          0
LLC-50FN1        950.00     0          0          0          0
LLC-50FN3        942.83     0          0          0          0
LLC-50FN4        941.23     0          0          0          0
LLC-50FN5        938.00     0          0          0          0
LLC-50FN6        942.00     0          0          0          0
LLC-50FN7        942.00     0          0          0          0
LLC-50b          934.29     0          3.00       0          0
PC-11            973.00     0          0.90       0          0
PC-20            950.33     0          0          0          0
PC-7             988.97     0          0          0          0
PC-3             980.00     0          0          0          0
PC-24            971.24     0          0          0          0
PC-16FN1         970.60     0          0          0          0
PC-16FN5         961.47     0          0          0          0
PC-26FN5         948.00     0          0          0          0
PC-24FN6         970.30     0          0          0          0
PC-26            949.00     0          0          0          0
PC-2             982.55     0          0          0          0
PC-2             980.00     0          0          0          0
PC-2             980.00     0          0          0          0
PC-3             985.00     0          0          0          0
PC-3             985.00     0          0          0          0
PC-3             988.31     0          0          0          0
PC-3             990.00     0          0          0          0
PC-8             961.53     0          0          0          0
PC-8             995.00     0          0          0          0
PC-8             970.00     0          0          0          0
PC-9FN3          970.00     0          0          0          0
PC-10            968.10     0          0          0          0
PC-10FN2         972.00     0          0          0          0
PC-8             971.35     0          0          0          0
PC-8             970.00     0          0          0          0
PC-9             965.00     0          0          0          0
PC-11            972.00     0          0          0          0
PC-12            960.00     0          0          0          0
PC-12FN2         958.00     0          0          0          0
PC-14            955.00     0          0          0          0
PC-14            955.27     0          0          0          0
PC-15            956.00     0          0          0          0
PC-21FN1         950.50     0          0          0          0
PC-21FN3         956.00     0          0          0          0
PC-21FN4         956.00     0          0          0          0
PC-21FN5         954.00     0          0          0          0
PC-22FN1         960.10     0          0          0          0
PC-23FN1         955.00     0          0          0          0
PC-23            959.00     0          0          0          0
PC-19            1000.00    0          0          0          0
PC-17            998.50     0          0          0          0
PC-25            942.00     0          0          0          0
PC-20            956.66     0          0          0          0
PC-20            977.34     0          0          0          0
PC-15FN3         965.50     0          0          0          0
PC-2             985.00     0          0          0          0
PC-18            1000.00    0          0          0          0
PC-8             982.00     0          0          0          0
PC-9FN2          965.00     0          0          0          0
PC-9FN4          969.17     0          0          0          0
PC-9FN5          969.39     0          0          0          0
PC-10FN1         970.00     0          0          0          0
PC-12FN1         956.00     0          0          0          0
PC-12FN3         958.00     0          0          0          0
PC-14FN2         953.86     0          0          0          0
PC-14FN1         953.36     0          0          0          0
PC-14FN3         950.00     0          0          0          0
PC-15FN1         956.00     0          0          0          0
PC-15FN2         956.00     0          0          0          0
PC-15FN4         965.50     0          0          0          0
PC-15FN5         954.00     0          0          0          0
PC-16FN2         962.01     0          0          0          0
PC-16FN3         962.00     0          0          0          0
PC-16FN4         962.00     0          0          0          0
PC-21FN2         951.03     0          0          0          0
PC-23FN3         944.00     0          0          0          0
PC-23FN2         945.86     0          0          0          0
PC-24FN5         951.43     0          0          0          0
PC-23FN5         971.24     0          0          0          0
PC-24FN7         951.70     0          0          0          0
PC-26FN8         948.00     0          2.62       0          0
PC-24FN1         956.00     0          0          0          0
PC-24FN2         956.00     0          0          0          0
PC-24FN3         956.00     0          0          0          0
PC-24FN4         956.00     0          0          0          0
PC-26FN1         947.00     0          0          0          0
PC-26FN2         947.00     0          0          0          0
PC-26FN3         947.00     0          0          0          0
PC-26FN4         946.00     0          0          0          0
PC-26FN7         948.00     0          1.35       0          0
PC-26FN6         946.00     0          0.41       0          0
SMC-1            970.00     0          4.20       0          0
SMC-2            972.49     0          0          0          0
SMC-3            970.00     0          0          0          0
SMC-4            972.49     0          0.40       0          0
SMC-5            970.00     0          6.07       0          0
SMC-8            960.00     0          0          0          0
SMC-9            960.00     0          2.00       0          0
SMC-10           964.00     0          1.90       0          0
SMC-12           970.00     0          0          0          0
SMC-13           970.00     0          0          0          0
SMC-14           959.71     0          0          0          0
SMC-11           964.00     0          0          0          0
SMC-7            960.00     0          0          0          0
SMC-6            960.00     0          0          0          0
SMC-34           960.00     0          0          0          0
SMC-28           950.00     0          0          0          0
SMC-26           960.00     0          0          0          0
SMC-27           960.00     0          8.88       0          0
SMC-29           950.00     0          8.88       0          0
SMC-36           960.00     0          4.00       0          0
SMC-35           960.00     0          0          0          0
SMC-33           980.00     0          0          0          0
SMC-32           980.00     0          0          0          0
SMC-38           990.00     0          0          0          0
SMC-39           990.00     0          0.72       0          0
SMC-40           982.39     0          0          0          0
SMC-41           970.00     0          0          0          0
SMC-37           950.00     0          4.00       0          0
SMC-47           974.47     0          4.00       0          0
SMC-43           965.00     0          0          0          0
SMC-48           945.00     0          0          0          0
SMC-42           965.00     0          0          0          0
SMC-61           945.00     0          3.00       0          0
SMC-52           940.00     0          0          0          0
SMC-51           940.80     0          0          0          0
SMC-50           944.00     0          0          0          0
SMC-49           946.00     0          0          0          0
SMC-45           2000.00    0          0          0          0
SMC-46           2000.00    0          0          0          0
SMC-44           2000.00    0          0          0          0
SMC-30           982.00     0          0          0          0
SMC-31           982.00     0          0          0          0
SMC-18           2000.00    0          2.90       0          0
SMC-17           970.00     0          0          0          0
SMC-16           958.00     0          0.50       0          0
SMC-21           962.00     0          0          0          0
SMC-24           966.00     0          1.11       0          0
SMC-19           966.00     0          0          0          0
SMC-25           960.00     0          0          0          0
SMC-23           950.00     0          0          0          0
SMC-22           950.00     0          4.11       0          0
SMC-59           945.00     0          0.20       0          0
SMC-56           962.00     0          0          0          0
SMC-57           960.00     0          0          0          0
SMC-58           956.00     0          0          0          0
SMC-60           940.00     0          0          0          0
SMC-63           945.00     0          0.75       0          0
SMC-64           937.00     0          0          0          0
SMC-55           965.00     0          0          0          0
SMC-62           950.00     0          0          0          0
SMC-53           985.00     0          0          0          0
SMC-54           985.00     0          0          0          0
SMC-20           962.00     0          0.73       0          0
SMC-1            969.56     0          0          0          0
SMC-1            969.56     0          0          0          0
SMC-1            970.20     0          0          0          0
SMC-5            949.70     0          0          0          0
SMC-9            960.00     0          0          0          0
SMC-15           952.00     0          0          0          0
SMC-66           2000.00    0          3.36       0          0
SMC-53           966.83     0          0          0          0
SMC-54pond       965.00     0          0.80       0          0
SMC-33           962.98     0          0          0          0
SMC-32           962.98     0          0          0          0
SMC-39           990.00     0          0          0          0
SMC-41           950.00     0          0          0          0
SMC-41           942.23     0          0          0          0
SMC-8nPond       960.00     0          1.50       0          0
SMC-43           940.89     0          0          0          0
SMC-43           940.00     0          0          0          0
SMC-46pond       2000.00    0          0          0          0
SMC-56pond       964.00     0          0          0          0
SMC-56           964.00     0          0          0          0
SMC-56           955.60     0          0          0          0
SMC-57           949.20     0          0          0          0
SMC-57           950.00     0          0          0          0
SMC-57           950.60     0          0          0          0
SMC-58           949.40     0          0          0          0
SMC-58           942.00     0          0          0          0
SMC-61b          940.00     0          3.57       0          0
SMC-62pond       945.00     0          0          0          0
SMC-63           945.00     0          0          0          0
SMC-65           968.00     0          0          0          0
SMC-4FN1         972.49     0          0          0          0
SMC-4FN2         961.80     0          0          0          0
SMC-5FN2         960.00     0          0          0          0
SMC-11a          949.70     0          0.28       0          0
SMC-31A          950.00     0          1.50       0          0
SMC-31FN1        946.98     0          0          0          0
SMC-31FN3        941.69     0          0          0          0
SMC-31FN4        942.21     0          0          0          0
SMC-31FN2        946.00     0          0          0          0
SMC-31b          982.00     0          0          0          0
SMC-31aFN1       945.00     0          0          0          0
WB-1             932.00     0          2.90       0          0
WB-1             937.00     0          9.00       0          0
WB-1             937.00     0          3.40       0          0
WB-LM            971.00     0          9.00       0          0
GLC-4            1005.00    0          0          0          0
GLC-5            989.00     0          0          0          0
GLC-1            995.00     0          2.30       0          0
GLC-2            995.00     0          2.30       0          0
GLC-3            975.00     0          0          0          0
GLC-6            965.00     0          0          0          0
GLC-7            955.00     0          5.00       0          0
GLC-9            957.00     0          4.70       0          0
GLC-10           951.13     0          0          0          0
GLC-11           968.26     0          0.13       0          0
HL-1             987.00     0          0.24       0          0
HL-2             975.00     0          1.40       0          0
HL-4             969.00     0          0          0          0
HL-5             955.00     0          0          0          0
GLC-8            970.00     0          0          0          0
HL-3             975.00     0          0.72       0          0
GLC-5pond        1005.00    0          0          0          0
GLC-2pond        980.00     0          0          0          0
GLC-3            970.00     0          0          0          0
GLC-3            970.00     0          0          0          0
GLC-3            970.00     0          0          0          0
GLC-3            970.00     0          0          0          0
GLC-3            970.00     0          0          0          0
GLC-3            970.00     0          0          0          0
GLC-6            960.00     0          0          0          0
GLC-6            955.00     0          3.00       0          0
GLC-11MH6        968.26     0          5.00       0          0
GLC-11           935.00     0          4.00       0          0
HL-2             970.00     0          0          0          0
HL-2             970.00     0          0          0          0
GLC-10FN3        949.00     0          0          0          0
HL-1             982.00     0          0          0          0
HL-1             980.00     0          0          0          0
HL-1             985.00     0          0          0          0
HL-1             980.00     0          0          0          0
HL-4             955.00     0          0          0          0
HL-4spond        955.00     0          0          0          0
GLC-10FN7        953.13     0          0          0          0