;; SWMM5 .inp converted from XPSWMM .xp file
;; Generated by XPSWMM Card Reader
;; Source format: XP_CARD | Original title: CITY OF CALGARY - RANCHLANDS STORMWATER MANAGEMENT STUDY - 111C25708

[TITLE]
;;Project Title/Notes
CITY OF CALGARY - RANCHLANDS STORMWATER MANAGEMENT STUDY - 111C25708

[OPTIONS]
FLOW_UNITS           CMS
INFILTRATION         HORTON
FLOW_ROUTING         DYNWAVE
LINK_OFFSETS         DEPTH
MIN_SLOPE            0.0
ALLOW_PONDING        NO
SKIP_STEADY_STATE    NO
ROUTING_STEP         00:00:60
VARIABLE_STEP        0.75
INERTIAL_DAMPING     PARTIAL
NORMAL_FLOW_LIMITED  BOTH
MAX_TRIALS           50

[JUNCTIONS]
;;Name           Elev       MaxDepth   InitDepth  SurDepth   Aponded
;;-------------- ---------- ---------- ---------- ---------- ----------
10010            1067.20    0          0          0          0
10000            1066.95    0          0          0          0
10011            1067.20    0          0          0          0
10001            1066.95    0          0          0          0
10020            1070.23    0          0          0          0
10021            1070.23    0          0          0          0
10030            1072.26    0          0          0          0
10031            1072.26    0          0          0          0
10040            1078.77    0          0          0          0
10050            1087.82    0          0          0          0
10060            1098.52    0          0          0          0
10070            1103.24    0          0          0          0
10080            1109.58    0          0          0          0
10085            1114.34    0          0          0          0
10090            1117.05    0          0          0          0
10095            1116.62    0          0          0          0
10100            1122.11    0          0          0          0
10110            1127.34    0          0          0          0
10120            1129.24    0          0          0          0
10130            1131.32    0          0          0          0
10150            1137.07    0          0          0          0
10160            1135.19    0          0          0          0
10170            1134.94    0          0          0          0
10180            1142.67    0          0          0          0
10185            1146.47    0          0          0          0
10190            1149.88    0          0          0          0
10195            1151.40    0          0          0          0
10200            1156.41    0          0          0          0
10210            1158.45    0          0          0          0
10220            1159.27    0          0          0          0
10230            1162.27    0          0          0          0
10240            1169.56    0          0          0          0
10250            1178.46    0          0          0          0
10260            1187.13    0          0          0          0
10270            1186.89    0          0          0          0
10280            1194.40    0          0          0          0
10290            1211.14    0          0          0          0
10300            1213.08    0          0          0          0
10310            1216.54    0          0          0          0
10320            1219.86    0          0          0          0
10330            1229.50    0          0          0          0
10340            1233.12    0          0          0          0
10350            1236.82    0          0          0          0
10360            1239.71    0          0          0          0
10370            1240.50    0          0          0          0
10380            1242.40    0          0          0          0
10390            1244.28    0          0          0          0
10400            1243.71    0          0          0          0
10410            1245.33    0          0          0          0
10420            1245.59    0          0          0          0
10430            1246.94    0          0          0          0
11000            1087.05    0          0          0          0
11010            1085.23    0          0          0          0
11020            1088.33    0          0          0          0
11030            1098.20    0          0          0          0
11040            1097.75    0          0          0          0
11050            1099.09    0          0          0          0
11060            1105.15    0          0          0          0
11070            1110.85    0          0          0          0
11080            1115.42    0          0          0          0
11090            1114.52    0          0          0          0
11095            1119.38    0          0          0          0
11100            1124.31    0          0          0          0
11110            1132.44    0          0          0          0
11120            1140.29    0          0          0          0
11130            1141.59    0          0          0          0
11140            1145.81    0          0          0          0
11150            1146.76    0          0          0          0
11160            1150.07    0          0          0          0
11170            1153.29    0          0          0          0
11180            1156.17    0          0          0          0
11190            1159.18    0          0          0          0
11200            1160.52    0          0          0          0
11210            1164.45    0          0          0          0
11220            1168.31    0          0          0          0
11230            1169.89    0          0          0          0
11240            1175.26    0          0          0          0
11250            1179.32    0          0          0          0
11260            1185.17    0          0          0          0
11270            1196.24    0          0          0          0
11280            1198.85    0          0          0          0
11290            1201.52    0          0          0          0
11300            1205.43    0          0          0          0
11310            1214.39    0          0          0          0
11320            1222.12    0          0          0          0
11330            1226.79    0          0          0          0
11340            1232.14    0          0          0          0
11350            1236.27    0          0          0          0
11360            1238.98    0          0          0          0
11500            1120.29    0          0          0          0
11510            1119.69    0          0          0          0
11520            1121.68    0          0          0          0
11600            1116.97    0          0          0          0
11610            1115.62    0          0          0          0
11710            1122.28    0          0          0          0
11720            1122.04    0          0          0          0
11730            1122.64    0          0          0          0
11740            1123.34    0          0          0          0
11801            1141.59    0          0          0          0
11800            1146.01    0          0          0          0
11810            1151.63    0          0          0          0
11820            1156.79    0          0          0          0
12000            1097.52    0          0          0          0
12010            1100.60    0          0          0          0
12020            1108.49    0          0          0          0
12030            1115.26    0          0          0          0
12040            1118.60    0          0          0          0
12050            1120.32    0          0          0          0
12060            1122.88    0          0          0          0
12070            1123.51    0          0          0          0
13000            1139.21    0          0          0          0
13010            1147.68    0          0          0          0
13020            1147.80    0          0          0          0
13030            1153.33    0          0          0          0
13040            1157.06    0          0          0          0
13045            1175.99    0          0          0          0
13050            1183.47    0          0          0          0
14000            1149.51    0          0          0          0
14010            1150.97    0          0          0          0
14020            1153.78    0          0          0          0
14030            1154.87    0          0          0          0
14040            1163.01    0          0          0          0
14050            1165.40    0          0          0          0
14060            1167.52    0          0          0          0
14070            1168.71    0          0          0          0
14080            1171.19    0          0          0          0
14090            1172.39    0          0          0          0
14100            1174.69    0          0          0          0
14110            1175.90    0          0          0          0
14120            1178.10    0          0          0          0
14130            1183.23    0          0          0          0
14140            1185.28    0          0          0          0
15000            1225.44    0          0          0          0
15010            1222.14    0          0          0          0
15020            1223.54    0          0          0          0
15030            1224.89    0          0          0          0
15040            1228.47    0          0          0          0
15050            1231.82    0          0          0          0
15060            1231.55    0          0          0          0
15061            1231.55    0          0          0          0
15070            1237.54    0          0          0          0
15080            1239.14    0          0          0          0
15090            1241.14    0          0          0          0
15100            1244.98    0          0          0          0
15110            1245.99    0          0          0          0
15120            1246.43    0          0          0          0
15130            1248.19    0          0          0          0

[STORAGE]
;;Name           Elev       MaxDepth   InitDepth  Shape      Curve/Params
;;-------------- ---------- ---------- ---------- ---------- ----------
11700            1119.13    -0.26      0          FUNCTIONAL 5.00 0          0

[CONDUITS]
;;Name           From             To               Length     Roughness  InOffset   OutOffset  InitFlow   MaxFlow
;;-------------- ---------------- ---------------- ---------- ---------- ---------- ---------- ---------- ----------
W10010           10010            10000            294.09     0.0155     1064.12    1063.11    0          0
W10011           10011            10001            294.09     0.0155     1064.12    1063.11    0          0
W10020           10020            10010            128.01     0.0155     1066.97    1064.12    0          0
W10021           10021            10011            128.01     0.0155     1066.97    1064.12    0          0
W10030           10030            10020            132.00     0.0155     1068.96    1066.97    0          0
W10031           10031            10021            132.00     0.0155     1068.96    1066.97    0          0
W10040           10040            10030            139.59     0.0155     1071.68    1068.96    0          0
W10041           10040            10031            139.59     0.0155     1071.68    1068.96    0          0
W10050           10050            10040            275.80     0.0152     1080.27    1071.68    0          0
W10060           10060            10050            320.02     0.0152     1090.04    1080.27    0          0
W10070           10070            10060            169.19     0.0152     1095.94    1090.04    0          0
W10080           10080            10070            207.28     0.0152     1101.37    1095.94    0          0
W10085           10085            10080            191.98     0.0152     1107.77    1101.37    0          0
W10090           10090            10085            100.00     0.0092     1108.45    1107.77    0          0
W10095           10095            10090            140.20     0.0152     1111.68    1108.45    0          0
W10100           10100            10095            112.01     0.0152     1115.05    1111.68    0          0
W10110           10110            10100            216.70     0.0152     1118.85    1115.05    0          0
W10120           10120            10110            155.68     0.0152     1122.05    1118.85    0          0
W10130           10130            10120            193.69     0.0152     1124.25    1122.05    0          0
W10150           10150            10130            158.70     0.0152     1126.12    1124.25    0          0
W10160           10160            10150            106.80     0.0154     1129.89    1126.12    0          0
W10170           10170            10160            100.00     0.0087     1130.95    1129.89    0          0
W10180           10180            10170            218.50     0.0154     1137.05    1130.95    0          0
W10185           10185            10180            126.49     0.0154     1139.95    1137.05    0          0
W10190           10190            10185            100.18     0.0154     1141.23    1139.95    0          0
W10195           10195            10190            73.39      0.0154     1144.19    1141.23    0          0
W10200           10200            10195            254.19     0.0151     1151.19    1144.19    0          0
W10210           10210            10200            109.39     0.0151     1152.74    1151.19    0          0
W10220           10220            10210            60.99      0.0130     1153.51    1152.74    0          0
W10230           10230            10220            81.41      0.0130     1157.20    1153.94    0          0
W10240           10240            10230            128.10     0.0130     1164.19    1157.20    0          0
W10250           10250            10240            170.98     0.0130     1173.65    1164.19    0          0
W10260           10260            10250            312.40     0.0130     1181.30    1173.65    0          0
W10270           10270            10260            86.10      0.0130     1183.19    1181.30    0          0
W10280           10280            10270            130.69     0.0130     1190.31    1183.52    0          0
W10290           10290            10280            188.60     0.0130     1203.76    1190.31    0          0
W10300           10300            10290            67.69      0.0130     1209.34    1204.12    0          0
W10310           10310            10300            58.88      0.0130     1212.90    1209.55    0          0
W10320           10320            10310            230.48     0.0130     1216.03    1212.90    0          0
W10330           10330            10320            80.01      0.0108     1225.68    1216.03    0          0
W10340           10340            10330            61.81      0.0130     1229.36    1226.53    0          0
W10350           10350            10340            100.30     0.0130     1233.42    1229.48    0          0
W10360           10360            10350            85.49      0.0130     1235.11    1233.42    0          0
W10370           10370            10360            183.39     0.0130     1237.03    1235.23    0          0
W10380           10380            10370            163.70     0.0130     1238.83    1237.03    0          0
W10390           10390            10380            265.19     0.0130     1240.50    1238.83    0          0
W10400           10400            10390            123.41     0.0130     1241.12    1240.50    0          0
W10410           10410            10400            273.18     0.0130     1242.30    1241.12    0          0
W10420           10420            10410            142.61     0.0130     1242.91    1242.30    0          0
W10430           10430            10420            238.19     0.0130     1244.08    1243.06    0          0
W11000           11000            10040            325.51     0.0155     1079.74    1071.68    0          0
W11010           11010            11000            114.29     0.0155     1081.95    1079.74    0          0
W11020           11020            11010            135.60     0.0155     1085.18    1081.95    0          0
W11030           11030            11020            259.10     0.0155     1091.38    1085.18    0          0
W11040           11040            11030            121.88     0.0152     1092.83    1091.38    0          0
W11050           11050            11040            74.70      0.0155     1094.24    1092.83    0          0
W11060           11060            11050            278.88     0.0155     1099.00    1094.24    0          0
W11070           11070            11060            309.36     0.0155     1104.80    1099.00    0          0
W11080           11080            11070            166.11     0.0155     1107.07    1104.80    0          0
W11090           11090            11080            100.00     0.0127     1109.02    1107.07    0          0
W11095           11095            11090            109.69     0.0153     1113.17    1109.02    0          0
W11100           11100            11095            259.10     0.0153     1120.59    1113.17    0          0
W11110           11110            11100            219.69     0.0130     1126.24    1120.59    0          0
W11120           11120            11110            203.78     0.0130     1133.35    1126.24    0          0
W11130           11130            11120            100.00     0.0100     1135.72    1133.35    0          0
W11140           11140            11130            244.89     0.0130     1140.32    1135.72    0          0
W11150           11150            11140            90.19      0.0130     1143.11    1140.32    0          0
W11160           11160            11150            167.30     0.0130     1146.47    1143.11    0          0
W11170           11170            11160            85.80      0.0130     1149.04    1146.59    0          0
W11180           11180            11170            128.41     0.0130     1152.48    1149.04    0          0
W11190           11190            11180            111.49     0.0130     1154.26    1152.48    0          0
W11200           11200            11190            96.01      0.0130     1155.33    1154.26    0          0
W11210           11210            11200            150.90     0.0130     1162.10    1155.43    0          0
W11220           11220            11210            187.20     0.0130     1164.44    1162.10    0          0
W11230           11230            11220            149.68     0.0130     1166.35    1164.44    0          0
W11240           11240            11230            187.20     0.0130     1169.96    1166.51    0          0
W11250           11250            11240            199.88     0.0130     1176.00    1170.24    0          0
W11260           11260            11250            180.89     0.0130     1181.90    1176.11    0          0
W11270           11270            11260            179.79     0.0130     1193.13    1182.09    0          0
W11280           11280            11270            115.48     0.0130     1195.45    1193.40    0          0
W11290           11290            11280            60.01      0.0130     1197.70    1195.67    0          0
W11300           11300            11290            100.00     0.0101     1202.02    1197.70    0          0
W11310           11310            11300            160.41     0.0130     1212.25    1202.57    0          0
W11320           11320            11310            155.81     0.0130     1218.96    1212.25    0          0
W11330           11330            11320            94.48      0.0130     1222.67    1219.06    0          0
W11340           11340            11330            128.89     0.0130     1229.10    1223.68    0          0
W11350           11350            11340            128.80     0.0130     1232.25    1229.30    0          0
W11360           11360            11350            86.89      0.0130     1234.22    1232.25    0          0
W11500           11500            11090            109.69     0.0130     1112.36    1109.95    0          0
W11510           11510            11500            320.02     0.0130     1115.93    1112.66    0          0
W11520           11520            11510            101.49     0.0130     1117.88    1115.93    0          0
W11600           11600            11090            301.80     0.0130     1111.20    1109.81    0          0
W11610           11610            11600            411.46     0.0130     1112.49    1111.20    0          0
W11700           11700            11095            100.00     0.0072     1115.77    1113.63    0          0
W11710           11710            11700            262.08     0.0130     1118.33    1116.87    0          0
W11720           11720            11710            245.20     0.0130     1119.25    1118.33    0          0
W11730           11730            11720            91.41      0.0130     1119.85    1119.53    0          0
W11740           11740            11730            91.41      0.0130     1120.61    1120.07    0          0
W11801           11801            11130            100.21     0.0025     1136.89    1135.72    0          0
W11800           11800            11801            221.70     0.0130     1140.49    1136.89    0          0
W11810           11810            11800            107.89     0.0130     1146.29    1140.49    0          0
W11820           11820            11810            170.98     0.0130     1152.09    1146.54    0          0
W12000           12000            10050            166.11     0.0130     1089.95    1081.13    0          0
W12010           12010            12000            139.41     0.0130     1093.17    1089.95    0          0
W12020           12020            12010            80.49      0.0130     1103.36    1093.17    0          0
W12030           12030            12020            375.50     0.0130     1109.42    1103.36    0          0
W12040           12040            12030            306.31     0.0130     1113.46    1109.42    0          0
W12050           12050            12040            101.19     0.0130     1115.50    1113.46    0          0
W12060           12060            12050            211.70     0.0130     1118.21    1115.50    0          0
W12070           12070            12060            100.00     0.0090     1118.91    1118.34    0          0
W13000           13000            10160            61.20      0.0130     1135.16    1131.66    0          0
W13010           13010            13000            159.98     0.0130     1142.78    1135.16    0          0
W13020           13020            13010            273.58     0.0130     1146.05    1142.78    0          0
W13030           13030            13020            60.90      0.0130     1147.89    1146.05    0          0
W13040           13040            13030            133.59     0.0130     1151.83    1147.89    0          0
W13045           13045            13040            462.36     0.0130     1173.02    1152.07    0          0
W13050           13050            13045            121.88     0.0130     1176.21    1173.02    0          0
W14000           14000            10190            222.19     0.0130     1144.25    1141.23    0          0
W14010           14010            14000            175.98     0.0130     1145.83    1144.25    0          0
W14020           14020            14010            100.00     0.0108     1146.46    1145.83    0          0
W14030           14030            14020            86.41      0.0130     1150.29    1146.72    0          0
W14040           14040            14030            127.19     0.0130     1157.94    1150.29    0          0
W14050           14050            14040            79.61      0.0130     1160.11    1157.94    0          0
W14060           14060            14050            149.01     0.0130     1162.33    1160.11    0          0
W14070           14070            14060            137.58     0.0130     1164.29    1162.51    0          0
W14080           14080            14070            190.49     0.0130     1166.64    1164.29    0          0
W14090           14090            14080            128.19     0.0130     1168.94    1166.64    0          0
W14100           14100            14090            92.11      0.0130     1171.24    1169.09    0          0
W14110           14110            14100            43.58      0.0130     1172.48    1171.33    0          0
W14120           14120            14110            82.20      0.0130     1174.78    1172.48    0          0
W14130           14130            14120            222.40     0.0130     1179.94    1174.78    0          0
W14140           14140            14130            250.08     0.0130     1182.36    1179.94    0          0
W15000           15000            10290            71.20      0.0130     1207.76    1204.11    0          0
W15010           15010            15000            127.58     0.0130     1217.39    1208.38    0          0
W15020           15020            15010            127.58     0.0130     1220.21    1217.76    0          0
W15030           15030            15020            58.31      0.0130     1221.42    1220.21    0          0
W15040           15040            15030            58.18      0.0130     1224.07    1221.42    0          0
W15050           15050            15040            121.79     0.0130     1226.13    1224.07    0          0
W15060           15060            15050            113.11     0.0130     1227.27    1226.13    0          0
W15061           15061            15060            100.00     0.0025     1229.41    1227.27    0          0
W15070           15070            15061            100.00     0.0072     1232.40    1229.41    0          0
W15080           15080            15070            98.60      0.0130     1234.59    1232.54    0          0
W15090           15090            15080            103.69     0.0130     1236.63    1234.59    0          0
W15100           15100            15090            236.39     0.0130     1239.55    1236.63    0          0
W15110           15110            15100            238.40     0.0130     1241.39    1239.55    0          0
W15120           15120            15110            142.49     0.0130     1242.26    1241.39    0          0
W15130           15130            15120            205.39     0.0130     1243.14    1242.26    0          0

[XSECTIONS]
;;Link           Shape        Geom1      Geom2      Geom3      Geom4      Barrels
;;-------------- ------------ ---------- ---------- ---------- ---------- ----------
W10010           TRAPEZOIDAL  2.13       1.83       0          0          1
W10011           TRAPEZOIDAL  2.13       1.83       0          0          1
W10020           TRAPEZOIDAL  2.13       1.83       0          0          1
W10021           TRAPEZOIDAL  2.13       1.83       0          0          1
W10030           TRAPEZOIDAL  2.13       1.83       0          0          1
W10031           TRAPEZOIDAL  2.13       1.83       0          0          1
W10040           TRAPEZOIDAL  2.13       1.83       0          0          1
W10041           TRAPEZOIDAL  2.13       1.83       0          0          1
W10050           TRAPEZOIDAL  2.13       1.52       0          0          1
W10060           TRAPEZOIDAL  2.13       1.52       0          0          1
W10070           TRAPEZOIDAL  2.13       1.52       0          0          1
W10080           TRAPEZOIDAL  2.13       1.52       0          0          1
W10085           TRAPEZOIDAL  2.13       1.52       0          0          1
W10090           TRAPEZOIDAL  2.13       1.52       0          0          1
W10095           TRAPEZOIDAL  2.13       1.52       0          0          1
W10100           TRAPEZOIDAL  2.13       1.52       0          0          1
W10110           TRAPEZOIDAL  2.13       1.52       0          0          1
W10120           TRAPEZOIDAL  2.13       1.52       0          0          1
W10130           TRAPEZOIDAL  2.13       1.52       0          0          1
W10150           TRAPEZOIDAL  2.13       1.52       0          0          1
W10160           TRAPEZOIDAL  1.83       1.52       0          0          1
W10170           TRAPEZOIDAL  1.83       1.52       0          0          1
W10180           TRAPEZOIDAL  1.83       1.52       0          0          1
W10185           TRAPEZOIDAL  1.83       1.52       0          0          1
W10190           TRAPEZOIDAL  1.83       1.52       0          0          1
W10195           TRAPEZOIDAL  1.83       1.52       0          0          1
W10200           TRAPEZOIDAL  1.83       1.22       0          0          1
W10210           TRAPEZOIDAL  1.83       1.22       0          0          1
W10220           CIRCULAR     1.83       0          0          0          1
W10230           CIRCULAR     1.37       0          0          0          1
W10240           CIRCULAR     1.37       0          0          0          1
W10250           CIRCULAR     1.37       0          0          0          1
W10260           CIRCULAR     1.68       0          0          0          1
W10270           CIRCULAR     1.68       0          0          0          1
W10280           CIRCULAR     1.37       0          0          0          1
W10290           CIRCULAR     1.22       0          0          0          1
W10300           CIRCULAR     1.22       0          0          0          1
W10310           CIRCULAR     1.22       0          0          0          1
W10320           CIRCULAR     1.22       0          0          0          1
W10330           CIRCULAR     1.22       0          0          0          1
W10340           CIRCULAR     1.22       0          0          0          1
W10350           CIRCULAR     1.22       0          0          0          1
W10360           CIRCULAR     1.22       0          0          0          1
W10370           CIRCULAR     1.22       0          0          0          1
W10380           CIRCULAR     1.22       0          0          0          1