;; SWMM5 .inp converted from XPSWMM .xp file
;; Generated by XPSWMM Card Reader
;; Source format: XP_CARD | Original title: (none)

[TITLE]
;;Project Title/Notes
Converted from XPSWMM .xp file

[OPTIONS]
FLOW_UNITS           CMS
INFILTRATION         HORTON
FLOW_ROUTING         DYNWAVE
LINK_OFFSETS         DEPTH
MIN_SLOPE            0.0
ALLOW_PONDING        NO
SKIP_STEADY_STATE    NO
ROUTING_STEP         00:00:60
VARIABLE_STEP        0.75
INERTIAL_DAMPING     PARTIAL
NORMAL_FLOW_LIMITED  BOTH
MAX_TRIALS           50
HEAD_TOLERANCE       .001

[JUNCTIONS]
;;Name           Elev       MaxDepth   InitDepth  SurDepth   Aponded
;;-------------- ---------- ---------- ---------- ---------- ----------
0                27.01      0          0          0          0
0                26.85      0          0          0          0
0                26.31      0          0          0          0
0                25.72      0          0          0          0
0                25.48      0          0          0          0
0                25.24      0          0          0          0
0                25.30      0          0          0          0
0                25.14      0          0          0          0
0                24.68      0          0          0          0
0                24.46      0          0          0          0
0                23.48      0          0          0          0
0                24.10      0          0          0          0
0                23.60      0          0          0          0
0                22.95      0          0          0          0
0                22.83      0          0          0          0
0                22.11      0          0          0          0
0                21.52      0          0          0          0
0                21.25      0          0          0          0
0                20.80      0          0          0          0
0                20.97      0          0          0          0
0                20.82      0          0          0          0
0                20.40      0          0          0          0
0                21.61      0          0          0          0
0                21.55      0          0          0          0
0                21.15      0          0          0          0
0                20.66      0          0          0          0
0                20.77      0          0          0          0
0                26.70      0          0          0          0
0                25.89      0          0          0          0
0                26.70      0          0          0          0
0                26.38      0          0          0          0
0                25.41      0          0          0          0
0                24.88      0          0          0          0
0                24.89      0          0          0          0
0                24.71      0          0          0          0
0                24.55      0          0          0          0
0                25.00      0          0          0          0
0                23.95      0          0          0          0
0                23.11      0          0          0          0
0                23.05      0          0          0          0
0                23.00      0          0          0          0
0                22.34      0          0          0          0
0                24.45      0          0          0          0
0                24.16      0          0          0          0
0                23.56      0          0          0          0
0                23.15      0          0          0          0
0                22.14      0          0          0          0
0                22.19      0          0          0          0
0                22.34      0          0          0          0
0                20.60      0          0          0          0
0                21.26      0          0          0          0
0                20.40      0          0          0          0
0                19.52      0          0          0          0
0                20.90      0          0          0          0
0                21.36      0          0          0          0
0                19.70      0          0          0          0
0                19.99      0          0          0          0
0                19.00      0          0.10       0          0
0                23.13      0          0          0          0
0                22.40      0          0          0          0
0                22.23      0          0          0          0
0                21.87      0          0          0          0
0                22.19      0          0          0          0
0                21.68      0          0          0          0
0                22.90      0          0          0          0
0                22.79      0          0          0          0
0                22.90      0          0          0          0
0                23.19      0          0          0          0
0                22.75      0          0          0          0
0                23.30      0          0          0          0
0                22.91      0          0          0          0
0                23.59      0          0          0          0
0                23.28      0          0          0          0
0                24.24      0          0          0          0
0                24.36      0          0          0          0
0                23.49      0          0          0          0
0                23.43      0          0          0          0
0                25.01      0          0          0          0
0                26.80      0          0          0          0
0                26.35      0          0          0          0
0                25.93      0          0          0          0
0                24.70      0          0          0          0
0                23.92      0          0          0          0
0                21.83      0          0          0          0
0                21.08      0          0          0          0
0                21.22      0          0          0          0
0                22.60      0          0          0          0
0                23.28      0          0          0          0
0                21.45      0          0          0          0
0                22.41      0          0          0          0
0                21.30      0          0          0          0
0                22.78      0          0          0          0
0                21.45      0          0          0          0
0                20.30      0          0          0          0
0                21.60      0          0          0          0
0                22.90      0          0          0          0
0                23.00      0          0          0          0
0                22.70      0          0          0          0
0                22.20      0          0          0          0
0                25.20      0          0          0          0
0                24.80      0          0          0          0
0                24.65      0          0          0          0
0                24.60      0          0          0          0
0                25.00      0          0          0          0
0                24.98      0          0          0          0
0                25.00      0          0          0          0
0                26.10      0          0          0          0
0                25.60      0          0          0          0
0                25.40      0          0          0          0
0                25.30      0          0          0          0
0                21.50      0          0          0          0
0                21.35      0          0          0          0
0                21.20      0          0          0          0
0                20.70      0          0          0          0
0                20.50      0          0          0          0
0                23.23      0          0          0          0
0                19.99      0          0          0          0
0                19.00      0          0          0          0
0                22.00      0          0          0          0
0                27.45      0          0          0          0
0                27.10      0          0          0          0
0                27.00      0          0          0          0
0                26.60      0          0          0          0
0                26.50      0          0          0          0
0                25.90      0          0          0          0
0                25.85      0          0          0          0
0                25.50      0          0          0          0
0                25.30      0          0          0          0
0                25.13      0          0          0          0
0                23.62      0          0          0          0
0                22.19      0          0          0          0
0                20.84      0          0          0          0
0                20.93      0          0          0          0
0                20.77      0          0          0          0
0                20.75      0          0          0          0
0                20.59      0          0          0          0
0                19.84      0          0          0          0
0                26.90      0          0          0          0
0                25.95      0          0          0          0
0                22.10      0          0          0          0
0                19.95      0          0          0          0
0                24.50      0          0          0          0
0                24.00      0          0          0          0
0                24.10      0          0          0          0
0                24.40      0          0          0          0
0                24.00      0          0          0          0
0                24.23      0          0          0          0
0                24.00      0          0          0          0
0                24.00      0          0          0          0
0                23.26      0          0          0          0
0                24.80      0          0          0          0
0                23.31      0          0          0          0
0                24.91      0          0          0          0
0                25.10      0          0          0          0
0                25.00      0          0          0          0
0                24.90      0          0          0          0
0                24.80      0          0          0          0
0                24.90      0          0          0          0
0                25.50      0          0          0          0
0                24.10      0          0          0          0
0                23.70      0          0          0          0
0                23.46      0          0          0          0
0                23.60      0          0          0          0
0                24.10      0          0          0          0
0                24.50      0          0          0          0
0                24.00      0          0          0          0
0                24.47      0          0          0          0
0                24.13      0          0          0          0
0                23.85      0          0          0          0
0                23.64      0          0          0          0
0                24.26      0          0          0          0
0                24.50      0          0          0          0
0                25.70      0          0          0          0
0                22.50      0          0          0          0
0                24.00      0          0          0          0
0                24.50      0          0          0          0
0                24.20      0          0          0          0
0                25.60      0          0          0          0
0                25.20      0          0          0          0
0                25.20      0          0          0          0
0                26.40      0          0          0          0
0                25.10      0          0          0          0
0                25.80      0          0          0          0
0                23.47      0          0          0          0
0                23.23      0          0          0          0
0                21.54      0          0          0          0
0                22.42      0          0          0          0
0                22.31      0          0          0          0
0                22.55      0          0          0          0
0                23.13      0          0          0          0
0                22.65      0          0          0          0
0                20.62      0          0          0          0
0                21.48      0          0          0          0
0                23.18      0          0          0          0
0                22.30      0          0          0          0
0                21.06      0          0          0          0
0                24.71      0          0          0          0
0                22.49      0          0          0          0
0                22.19      0          0          0          0
0                20.00      0          0          0          0
0                22.00      0          0          0          0
0                24.39      0          0          0          0
0                0          0          0          0          0
0                24.29      0          0          0          0
0                21.15      0          0          0          0
0                28.00      0          0          0          0
0                27.50      0          0          0          0
0                26.10      0          0          0          0
0                24.70      0          0          0          0
0                22.80      0          0          0          0
0                21.10      0          0          0          0
0                19.70      0          0          0          0
0                19.10      0          0          0          0
0                18.50      0          0          0          0
0                17.80      0          0          0          0
0                17.23      0          0          0          0
0                17.00      0          0          0          0
0                17.00      0          0          0          0
0                17.23      0          0          0          0
0                18.00      0          0          0          0
0                17.00      0          0          0          0
0                26.00      0          0          0          0
0                20.00      0          0          0          0
0                19.00      0          0          0          0
0                19.05      0          0          0          0
0                18.30      0          0          0          0
0                0          0          0          0          0
0                19.99      0          0          0          0
0                19.00      0          0          0          0
0                20.65      0          0          0          0
0                23.00      0          0          0          0
0                22.50      0          0          0          0
0                21.70      0          0          0          0
0                22.34      0          0          0          0

[STORAGE]
;;Name           Elev       MaxDepth   InitDepth  Shape      Curve/Params
;;-------------- ---------- ---------- ---------- ---------- ----------
0                23.30      -0.60      0          FUNCTIONAL 0 0          0
0                20.97      -1.07      0          FUNCTIONAL 0 0          0
0                20.03      -1.03      0          FUNCTIONAL 800.00 0          0
0                20.64      0          0          FUNCTIONAL 25.00 0          0
0                21.54      -0.30      0          FUNCTIONAL 8000.00 0          0
0                20.64      0          0          FUNCTIONAL 25.00 0          0
0                21.00      0          0          FUNCTIONAL 6000.00 0          0
0                24.00      0          0          FUNCTIONAL 7000.00 0          0
0                20.97      -1.07      0          FUNCTIONAL 0 0          0
0                21.00      0          0          FUNCTIONAL 3500.00 0          0

[CONDUITS]
;;Name           From             To               Length     Roughness  InOffset   OutOffset  InitFlow   MaxFlow
;;-------------- ---------------- ---------------- ---------- ---------- ---------- ---------- ---------- ----------
260.1            RD260.1          0                33.79      0.0130     23.28      23.01      0          0
261.1            RD261.1          0                72.46      0.0130     22.86      22.29      0          0
262.1            RD262.1          0                84.16      0.0130     22.29      21.78      0          0
263.1            RD263.1          0                40.98      0.0130     21.70      21.54      0          0
264.1            RD264.1          0                58.02      0.0130     21.54      21.37      0          0
265.1            RD265.1          0                56.13      0.0130     21.37      21.15      0          0
266.1            RD266.1          0                50.59      0.0130     21.59      21.29      0          0
267.1            RD267.1          0                40.37      0.0130     20.99      20.75      0          0
268.1            RD268.1          0                66.41      0.0130     20.75      20.35      0          0
269.1            RD269.1          0                23.90      0.0130     20.91      20.85      0          0
270.1            RD270.1          0                42.75      0.0130     20.20      20.11      0          0
273.1            RD273.1          0                51.32      0.0130     20.01      19.91      0          0
274.1            RD274.1          0                96.85      0.0130     19.91      19.72      0          0
275.1            RD275.1          0                41.02      0.0130     19.41      19.33      0          0
276.1            RD276.1          0                91.64      0.0130     19.33      19.06      0          0
277.1            RD277.1          0                94.67      0.0130     18.91      18.67      0          0
278.1            RD278.1          0                69.69      0.0130     18.67      18.40      0          0
279.1            RD279.1          0                96.83      0.0130     18.25      17.96      0          0
280.1            RD280.1          0                44.43      0.0130     17.96      17.92      0          0
282.1            RD282.1          0                53.88      0.0130     17.92      17.87      0          0
283.1            RD283.1          0                44.60      0.0130     17.87      17.83      0          0
284.1            RD284.1          0                72.88      0.0130     17.83      17.76      0          0
286.1            RD286.1          0                75.00      0.0130     19.50      19.35      0          0
287.1            RD287.1          0                61.65      0.0130     18.96      18.84      0          0
288.1            RD288.1          0                101.40     0.0130     18.84      18.64      0          0
292.1            RD292.1          0                30.86      0.0130     18.64      18.57      0          0
296.1            RD296.1          0                66.56      0.0130     23.77      23.36      0          0
297.1            RD297.1          0                89.35      0.0130     22.27      21.60      0          0
298.1            RD298.1          0                56.22      0.0130     23.75      23.26      0          0
299.1            RD299.1          0                58.14      0.0130     23.26      22.68      0          0
300.1            RD300.1          0                73.21      0.0130     22.60      21.59      0          0
301.1            RD301.1          0                75.00      0.0130     21.67      21.29      0          0
302.1            RD302.1          0                35.04      0.0130     20.90      20.81      0          0
303.1            RD303.1          0                60.81      0.0130     20.73      20.58      0          0
304.1            RD304.1          0                49.85      0.0130     20.85      20.73      0          0
305.1            RD305.1          0                47.88      0.0130     21.21      20.88      0          0
306.1            RD306.1          0                150.00     0.0130     21.15      20.40      0          0
307.1            RD307.1          0                70.00      0.0130     20.54      20.36      0          0
308.1            RD308.1          0                45.68      0.0130     20.36      20.18      0          0
310.1            RD310.1          0                25.24      0.0130     19.94      19.87      0          0
311.1            RD311.1          0                74.19      0.0130     21.53      21.31      0          0
312.1            RD312.1          0                57.58      0.0130     21.16      20.58      0          0
313.1            RD313.1          0                52.31      0.0130     20.58      20.32      0          0
315.1            RD315.1          0                125.00     0.0130     19.81      19.50      0          0
316.1            RD316.1          0                108.00     0.0130     19.37      18.96      0          0
317.1            RD317.1          0                35.29      0.0130     19.85      19.42      0          0
319.1            RD319.1          0                20.00      0.0130     17.75      17.74      0          0
321.1            RD321.1          0                286.00     0.0130     17.49      17.21      0          0
326.1            RD326.1          0                100.00     0.0130     17.80      16.80      0          0
328.1            RD328.1          0                100.00     0.0130     16.80      16.30      0          0
323              0                0                289.60     0.0130     17.38      17.02      0          0
229.1            rd7              0                87.24      0.0130     20.34      20.20      0          0
231.1            rd8              0                124.00     0.0130     19.90      19.90      0          0
235.1            rd28             0                47.60      0.0130     18.75      18.63      0          0
239.1            rd20             0                68.54      0.0130     19.52      19.35      0          0
240.1            rd22             0                28.01      0.0130     19.18      19.16      0          0
250.1            rd15             0                58.59      0.0130     20.34      20.20      0          0
252.1            overland         0                14.60      0.0130     20.16      20.13      0          0
255.1            rd10             0                84.58      0.0130     19.77      19.52      0          0
260.1.1          rd24             0                42.36      0.0130     19.69      19.58      0          0
261.1.1          rd23             0                60.04      0.0130     19.57      19.47      0          0
263.1.1          rd27             0                89.72      0.0130     20.76      20.11      0          0
265.1.1          rd25             0                25.34      0.0130     20.24      20.20      0          0
270.1.1          rd13             0                110.22     0.0130     21.19      20.97      0          0
273.1.1          ch16             0                77.60      0.0130     20.53      20.38      0          0
275.1.1          rd26             0                50.04      0.0130     20.68      20.48      0          0
277.2            rd277.2          0                49.63      0          21.98      21.54      0          0
280.1.1          rd1              0                100.00     0.0130     23.60      23.20      0          0
282.1.1          rd2              0                89.30      0.0130     23.20      22.75      0          0
284.1.1          rd3              0                92.10      0.0130     22.65      21.82      0          0
285.1.1          rd4              0                122.00     0.0130     21.73      21.46      0          0
287.1.1          rd14             0                43.80      0.0130     20.89      20.78      0          0
288.1.1          rd17             0                61.60      0.0130     20.70      20.59      0          0
444.1            rd 444.1         0                51.08      0.0130     19.38      19.13      0          0
445.1            rd 445.1         0                34.77      0.0130     18.63      18.47      0          0
447.1            0                0                19.90      0.0130     21.19      21.15      0          0
232.1            rd9              0                147.30     0.0130     19.90      19.24      0          0
321.1.1          RD321.1.1        0                300.00     0.0130     19.24      18.08      0          0
312.1.1          rd31             0                88.50      0.0130     20.66      20.36      0          0
452.1            rd452.1          0                1.00       0.0130     19.24      19.24      0          0
453.1            Rd453.1          0                179.10     0.0130     17.75      17.57      0          0
454.1            Rd454.1          0                22.60      0.0130     17.54      17.52      0          0
new227           rd6              0                98.40      0.0130     20.80      20.50      0          0
320.1            rd 6b            0                9.40       0.0130     20.42      20.40      0          0
684              0                0                16.72      0.0130     17.98      17.92      0          0
325.1            rd40             0                45.56      0.0130     18.09      18.05      0          0
292.11           rd29.0           0                28.20      0.0130     18.54      18.45      0          0
292.1.1          rd29             0                82.50      0.0130     18.44      18.26      0          0
462.1            ch 462.1         0                86.23      0.0130     20.17      19.60      0          0
368              0                0                16.00      0.0130     17.80      17.00      0          0
348.1            148rd            0                40.00      0.0130     21.19      21.10      0          0
350.1            OL350.1          0                35.00      0.0130     21.10      20.97      0          0
352.1            152rd            0                154.00     0.0130     20.77      20.10      0          0
353.1            0                0                124.00     0.0130     20.10      19.31      0          0
324              0                0                18.00      0.0130     17.02      17.00      0          0
358.1            158rd            0                117.00     0.0130     22.73      22.51      0          0
360.1            160rd            0                92.00      0.0130     22.50      22.43      0          0
362.1            162rd            0                115.00     0.0130     22.43      22.29      0          0
364.1            164rd            0                115.00     0.0130     22.29      22.14      0          0
369.1            169rd            0                100.00     0.0130     24.00      23.95      0          0
372.1            172rd            0                150.00     0.0130     23.31      22.36      0          0
373.1            173rd            0                211.00     0.0130     22.36      21.03      0          0
376.1            rd176            0                34.00      0.0130     23.92      23.64      0          0
380.1            rd180            0                69.00      0.0130     23.64      22.53      0          0
383.1            183rd            0                70.00      0.0130     19.06      18.80      0          0
385.1            185rd            0                45.00      0.0130     18.80      18.64      0          0
387.1            187rd            0                162.00     0.0130     18.64      18.11      0          0
388.1            188rd            0                110.00     0.0130     18.11      17.90      0          0
390.1            190rd            0                48.00      0.0130     18.50      17.90      0          0
390              0                0                10.00      0.0130     21.60      21.50      0          0
394.1            ovaflow          0                50.00      0.0130     17.00      16.90      0          0
391              0                0                210.00     0.0200     16.90      16.69      0          0
392              0                0                125.00     0.0200     16.69      16.50      0          0
487.1            0                0                10.13      0.0130     17.21      17.20      0          0
373              0                0                45.00      0.0200     21.10      21.00      0          0
394              0                0                123.00     0.0200     21.00      20.50      0          0
408.1            208rd            0                98.00      0.0130     26.00      25.27      0          0
410.1            210rd            0                15.00      0.0130     25.27      25.20      0          0
412.1            212rd            0                93.00      0.0130     25.09      24.47      0          0
413.1            213rd            0                101.00     0.0130     24.02      23.38      0          0
494.1            494.1rd          0                136.00     0.0130     24.34      23.99      0          0
495.1            495.1rd          0                8.00       0.0130     23.91      23.88      0          0
496.1            0                0                100.00     0.0130     23.60      23.24      0          0