;; SWMM5 .inp converted from XPSWMM .xp file
;; Generated by XPSWMM Card Reader
;; Source format: XP_CARD | Original title: Extran Block for Franklin Street Storm Sewer - SvR Jan 95

[TITLE]
;;Project Title/Notes
Extran Block for Franklin Street Storm Sewer - SvR Jan 95

[OPTIONS]
FLOW_UNITS           CMS
INFILTRATION         HORTON
FLOW_ROUTING         DYNWAVE
LINK_OFFSETS         DEPTH
MIN_SLOPE            0.0
ALLOW_PONDING        NO
SKIP_STEADY_STATE    NO
ROUTING_STEP         00:00:10
VARIABLE_STEP        0.75
INERTIAL_DAMPING     PARTIAL
NORMAL_FLOW_LIMITED  BOTH
MAX_TRIALS           50
HEAD_TOLERANCE       .001

[JUNCTIONS]
;;Name           Elev       MaxDepth   InitDepth  SurDepth   Aponded
;;-------------- ---------- ---------- ---------- ---------- ----------
75               186.10     0          0          0          0
73               186.30     0          0          0          0
67               186.50     0          0          0          0
61               186.50     0          0          0          0
19               186.90     0          0          0          0
21               186.10     0          0          0          0
23               186.10     0          0          0          0
25               186.00     0          0          0          0
99               183.40     0          0          0          0
1                187.40     0          0          0          0
3                187.40     0          0          0          0
5                187.40     0          0          0          0
7                187.20     0          0          0          0
9                187.20     0          0          0          0
11               187.10     0          0          0          0
13               187.10     0          0          0          0
15               187.20     0          0          0          0
17               186.90     0          0          0          0
83               187.20     0          0          0          0
81               186.80     0          0          0          0
79               186.60     0          0          0          0
77               186.60     0          0          0          0
71               187.20     0          0          0          0
69               186.50     0          0          0          0
37               187.20     0          0          0          0
29               187.30     0          0          0          0
27               187.30     0          0          0          0
35               187.50     0          0          0          0
33               187.50     0          0          0          0
31               186.60     0          0          0          0
59               186.30     0          0          0          0
57               186.10     0          0          0          0
49               186.10     0          0          0          0
43               186.10     0          0          0          0
53               186.30     0          0          0          0
51               186.30     0          0          0          0
39               186.30     0          0          0          0
41               186.20     0          0          0          0
55               186.00     0          0          0          0
47               185.90     0          0          0          0
45               186.00     0          0          0          0
65               185.90     0          0          0          0
63               186.10     0          0          0          0

[CONDUITS]
;;Name           From             To               Length     Roughness  InOffset   OutOffset  InitFlow   MaxFlow
;;-------------- ---------------- ---------------- ---------- ---------- ---------- ---------- ---------- ----------
74               75               73               103.00     0.0130     184.30     183.99     0          0
72               73               67               62.00      0.0130     183.95     183.80     0          0
66               67               61               90.00      0.0130     183.72     183.52     0          0
60               61               19               105.00     0.0130     183.50     183.20     0          0
20               19               21               84.00      0.0130     183.12     182.94     0          0
22               21               23               100.00     0.0130     182.93     182.72     0          0
24               23               25               74.00      0.0130     182.70     182.49     0          0
26               25               99               50.00      0.0130     182.47     182.33     0          0
2                1                3                95.00      0.0130     185.15     185.01     0          0
4                3                5                95.00      0.0130     184.99     184.83     0          0
6                5                7                110.00     0.0130     184.76     184.56     0          0
8                7                9                90.00      0.0130     184.54     184.38     0          0
10               9                11               80.00      0.0130     184.37     184.21     0          0
12               11               13               118.00     0.0130     184.19     183.96     0          0
14               13               15               88.00      0.0130     183.88     183.68     0          0
16               15               17               36.00      0.0130     183.66     183.57     0          0
18               17               19               125.00     0.0130     183.56     183.25     0          0
82               83               81               40.00      0.0130     185.25     185.18     0          0
80               81               79               118.00     0.0130     185.13     184.94     0          0
78               79               77               25.00      0.0130     184.93     184.89     0          0
76               77               67               38.00      0.0130     184.81     184.75     0          0
70               71               69               84.00      0.0130     185.33     185.06     0          0
68               69               67               72.00      0.0130     185.05     184.88     0          0
38               37               15               102.00     0.0130     185.25     184.96     0          0
28               29               27               76.00      0.0130     185.54     185.31     0          0
30               27               15               105.00     0.0130     184.47     184.31     0          0
34               35               33               75.00      0.0130     185.65     185.42     0          0
32               33               27               102.00     0.0130     185.35     185.11     0          0
36               31               27               76.00      0.0130     184.73     184.54     0          0
58               59               57               46.00      0.0130     184.50     184.36     0          0
56               57               49               100.00     0.0130     184.29     183.99     0          0
48               49               43               100.00     0.0130     183.89     183.67     0          0
84               43               23               105.00     0.0130     183.66     183.45     0          0
52               53               51               96.00      0.0130     184.43     184.17     0          0
50               51               49               82.00      0.0130     184.15     184.00     0          0
40               39               41               100.00     0.0130     184.50     184.20     0          0
42               41               43               80.00      0.0130     184.19     183.98     0          0
54               55               49               80.00      0.0130     184.20     183.96     0          0
46               47               45               55.00      0.0130     184.10     183.94     0          0
44               45               43               60.00      0.0130     183.92     183.78     0          0
64               65               63               72.00      0.0130     184.10     183.86     0          0
62               63               61               80.00      0.0130     183.84     183.70     0          0

[XSECTIONS]
;;Link           Shape        Geom1      Geom2      Geom3      Geom4      Barrels
;;-------------- ------------ ---------- ---------- ---------- ---------- ----------
74               CIRCULAR     0.30       0          0          0          1
72               CIRCULAR     0.38       0          0          0          1
66               CIRCULAR     0.75       0          0          0          1
60               CIRCULAR     0.75       0          0          0          1
20               CIRCULAR     1.05       0          0          0          1
22               CIRCULAR     1.05       0          0          0          1
24               CIRCULAR     1.05       0          0          0          1
26               CIRCULAR     1.05       0          0          0          1
2                CIRCULAR     0.75       0          0          0          1
4                CIRCULAR     0.75       0          0          0          1
6                CIRCULAR     0.75       0          0          0          1
8                CIRCULAR     0.75       0          0          0          1
10               CIRCULAR     0.75       0          0          0          1
12               CIRCULAR     0.75       0          0          0          1
14               CIRCULAR     0.75       0          0          0          1
16               CIRCULAR     0.90       0          0          0          1
18               CIRCULAR     0.90       0          0          0          1
82               CIRCULAR     0.45       0          0          0          1
80               CIRCULAR     0.53       0          0          0          1
78               CIRCULAR     0.60       0          0          0          1
76               CIRCULAR     0.60       0          0          0          1
70               CIRCULAR     0.38       0          0          0          1
68               CIRCULAR     0.53       0          0          0          1
38               CIRCULAR     0.45       0          0          0          1
28               CIRCULAR     0.30       0          0          0          1
30               CIRCULAR     0.75       0          0          0          1
34               CIRCULAR     0.30       0          0          0          1
32               CIRCULAR     0.53       0          0          0          1
36               CIRCULAR     0.38       0          0          0          1
58               CIRCULAR     0.30       0          0          0          1
56               CIRCULAR     0.38       0          0          0          1
48               CIRCULAR     0.60       0          0          0          1
84               CIRCULAR     0.75       0          0          0          1
52               CIRCULAR     0.38       0          0          0          1
50               CIRCULAR     0.45       0          0          0          1
40               CIRCULAR     0.30       0          0          0          1
42               CIRCULAR     0.45       0          0          0          1
54               CIRCULAR     0.30       0          0          0          1
46               CIRCULAR     0.30       0          0          0          1
44               CIRCULAR     0.38       0          0          0          1
64               CIRCULAR     0.30       0          0          0          1
62               CIRCULAR     0.45       0          0          0          1

[LOSSES]
;;Link           Inlet      Outlet     Average    Flap Gate
;;-------------- ---------- ---------- ---------- ----------
74               0          0          0          NO
72               0          0          0          NO
66               0          0          0          NO
60               0          0          0          NO
20               0          0          0          NO
22               0          0          0          NO
24               0          0          0          NO
26               0          0          0          NO
2                0          0          0          NO
4                0          0          0          NO
6                0          0          0          NO
8                0          0          0          NO
10               0          0          0          NO
12               0          0          0          NO
14               0          0          0          NO
16               0          0          0          NO
18               0          0          0          NO
82               0          0          0          NO
80               0          0          0          NO
78               0          0          0          NO
76               0          0          0          NO
70               0          0          0          NO
68               0          0          0          NO
38               0          0          0          NO
28               0          0          0          NO
30               0          0          0          NO
34               0          0          0          NO
32               0          0          0          NO
36               0          0          0          NO
58               0          0          0          NO
56               0          0          0          NO
48               0          0          0          NO
84               0          0          0          NO
52               0          0          0          NO
50               0          0          0          NO
40               0          0          0          NO
42               0          0          0          NO
54               0          0          0          NO
46               0          0          0          NO
44               0          0          0          NO
64               0          0          0          NO
62               0          0          0          NO

[COORDINATES]
;;Node           X-Coord            Y-Coord
;;-------------- ------------------ ------------------
75               -5361286.52        332778.86         
73               -5361183.33        332714.73         
67               -5361121.11        332713.48         
61               -5361118.07        332811.56         
19               -5361115.04        332928.50         
21               -5361187.88        332929.76         
23               -5361303.98        332934.16         
25               -5361385.17        332933.53         
99               -5361421.59        332935.41         
1                -5360685.42        332482.71         
3                -5360774.95        332486.48         
5                -5360865.25        332490.25         
7                -5360863.28        332622.91         
9                -5360861.76        332702.76         
11               -5360859.48        332783.28         
13               -5360855.69        332920.34         
15               -5360951.30        332922.22         
17               -5360997.58        332924.74         
83               -5360960.69        332599.74         
81               -5361002.42        332599.74         
79               -5361104.10        332663.24         
77               -5361122.85        332677.08         
71               -5360958.95        332706.00         
69               -5361050.01        332709.14         
37               -5360955.92        332807.06         
29               -5360862.04        333025.71         
27               -5360942.48        333032.62         
35               -5360856.95        333137.62         
33               -5360944.21        333138.88         
31               -5361012.50        333031.37         
59               -5361255.64        333255.12         
57               -5361297.37        333256.38         
49               -5361300.41        333146.98         
43               -5361302.68        333041.36         
53               -5361107.67        333141.95         
51               -5361206.32        333146.35         
39               -5361111.47        333035.70         
41               -5361205.56        333038.84         
55               -5361378.16        333150.12         
47               -5361425.97        333044.50         
45               -5361369.82        333042.61         
65               -5361292.88        332817.48         
63               -5361194.14        332814.97         

[MAP]
DIMENSIONS -5361425.97 332482.71 -5360685.42 333256.38
Units      None

[REPORT]
INPUT            YES
SUBCATCHMENTS    ALL
NODES            ALL
LINKS            ALL



