;; SWMM5 .inp converted from XPSWMM .xp file
;; Generated by XPSWMM Card Reader
;; Source format: XP_CARD | Original title: Simulation of Whiting Process Sewers

[TITLE]
;;Project Title/Notes
Simulation of Whiting Process Sewers

[OPTIONS]
FLOW_UNITS           CFS
INFILTRATION         HORTON
FLOW_ROUTING         DYNWAVE
LINK_OFFSETS         DEPTH
MIN_SLOPE            0.0
ALLOW_PONDING        NO
SKIP_STEADY_STATE    NO
ROUTING_STEP         00:00:30
VARIABLE_STEP        0.75
INERTIAL_DAMPING     PARTIAL
NORMAL_FLOW_LIMITED  BOTH
MAX_TRIALS           75
HEAD_TOLERANCE       0.0033

[JUNCTIONS]
;;Name           Elev       MaxDepth   InitDepth  SurDepth   Aponded
;;-------------- ---------- ---------- ---------- ---------- ----------
3-21             10.00      0          0          0          0
4-4              8.50       0          0          0          0
4-9              8.50       0          0          0          0
4-38             9.00       0          0          0          0
4-43             9.50       0          0          0          0
6-2              9.70       0          0          0          0
6-10             10.69      0          0          0          0
6-28             10.61      0          0          0          0
7-5              8.74       0          0          0          0
MH-B             10.00      0          0          0          0
13-7             12.00      0          0          0          0
10-5             9.50       0          0          0          0
7-92             10.18      0          0          0          0
7-75             9.20       0          0          0          0
7-61             10.68      0          0          0          0
7-43             11.86      0          0          0          0
6-41             11.74      0          0          0          0
7-121            9.58       0          0          0          0
11-43            14.00      0          0          0          0
13-30            12.20      0          0          0          0
14-3             13.61      0          0          0          0
6-31             11.32      0          0          0          0
4-13             9.00       0          0          0          0
4-10             8.74       0          0          0          0
13-32            12.20      0          0          0          0
17-7             10.00      0          0          0          0
17-6             9.25       0          0          0          0
12-12            12.20      0          0          0          0
10-44            8.80       0          0          0          0
10-45            9.00       0          0          0          0
9-16             11.83      0          0          0          0
3-43             10.27      0          0          0          0
3-6              10.83      0          0          0          0
7-74             10.38      0          0          0          0
2-12             9.50       0          0          0          0
7-4              9.20       0          0          0          0
4-46             8.33       0          0          0          0
6-50             11.50      0          0          0          0
14-2             10.00      0          0          0          0
14-1             12.00      0          0          0          0
13-43            12.00      0          0          0          0
13-42            12.00      0          0          0          0
13-41            12.00      0          0          0          0
7-122            9.58       0          0          0          0
17-4             12.00      0          0          0          0
7-76             8.90       0          0          0          0
2-4              8.00       0          0          0          0
9-19             10.11      0          0          0          0
6-39             10.00      0          0          0          0
6-38             10.80      0          0          0          0
6-37             10.00      0          0          0          0
6-33             10.00      0          0          0          0
7-46             10.00      0          0          0          0
7-44             12.31      0          0          0          0
13-2             12.00      0          0          0          0
16-1             12.20      0          0          0          0
16-3             12.20      0          0          0          0
16-4             12.20      0          0          0          0
16-7             12.20      0          0          0          0
16-9             12.20      0          0          0          0
16-12            12.20      0          0          0          0
16-13            12.20      0          0          0          0

[CONDUITS]
;;Name           From             To               Length     Roughness  InOffset   OutOffset  InitFlow   MaxFlow
;;-------------- ---------------- ---------------- ---------- ---------- ---------- ---------- ---------- ----------
30A              4-4              4-9              82.00      0.0140     -5.96      -6.00      0          0
21B              MH-B             7-5              120.00     0.0140     3.55       3.55       0          0
18               6-2              6-10             500.00     0.0140     4.40       3.50       0          0
20A              6-10             6-28             205.00     0.0140     3.80       3.50       0          0
6B               13-7             10-5             622.00     0.0140     -1.76      -2.08      0          0
6C               10-5             7-92             1127.00    0.0140     -2.08      -2.60      0          0
6D               7-92             7-75             698.00     0.0140     -2.60      -3.00      0          0
30B              4-9              4-38             586.00     0.0140     -6.00      -6.30      0          0
30C              4-38             4-43             218.00     0.0140     -3.30      -3.40      0          0
15B              6-41             7-43             136.00     0.0140     -3.90      -4.10      0          0
15C              7-43             7-61             521.00     0.0140     -3.58      -4.60      0          0
6A               13-30            13-7             206.00     0.0140     -1.66      -1.76      0          0
11B              11-43            7-121            2121.00    0.0140     3.50       0.94       0          0
11A              14-3             11-43            169.00     0.0140     3.41       3.00       0          0
15A              6-31             6-41             171.00     0.0140     1.80       1.50       0          0
21C              7-5              4-13             650.00     0.0140     3.55       3.05       0          0
21D              4-13             4-10             255.00     0.0140     3.05       3.21       0          0
21E              4-10             4-9              75.00      0.0140     3.21       -1.00      0          0
2C               13-32            13-30            560.00     0.0140     -0.10      -1.10      0          0
2B               12-12            13-32            495.00     0.0140     1.60       0.40       0          0
3B               17-6             17-7             347.00     0.0140     1.20       0          0          0
9C1              10-44            10-45            50.00      0.0140     3.80       2.40       0          0
9C2              10-45            11-43            375.00     0.0140     2.40       1.50       0          0
15F              7-75             4-43             615.00     0.0140     -1.98      -2.58      0          0
22B              3-43             3-21             65.00      0.0140     1.00       1.00       0          0
22A              3-6              3-43             295.00     0.0140     2.13       1.50       0          0
15D              7-61             7-74             342.00     0.0140     -4.60      -4.94      0          0
15E              7-74             7-75             26.00      0.0140     -4.95      -4.97      0          0
20B              6-28             7-4              725.00     0.0140     3.50       2.61       0          0
20C              7-4              7-5              90.00      0.0140     2.61       2.50       0          0
32A              4-43             4-46             379.00     0.0140     -2.92      -3.14      0          0
369.1            4-46             2-12             669.00     0.0140     -3.14      -3.50      0          0
17A              9-16             6-50             1659.00    0.0140     7.43       4.82       0          0
17B              6-50             6-10             190.00     0.0140     4.82       4.74       0          0
3C               17-7             14-2             233.00     0.0140     0          0          0          0
3D               14-2             14-1             144.00     0.0140     -0.50      -0.50      0          0
3E               14-1             13-43            288.00     0.0140     4.00       4.00       0          0
3F               13-43            13-42            58.00      0.0140     -1.42      -1.42      0          0
3G               13-42            13-41            201.00     0.0140     2.00       2.00       0          0
3H               13-41            13-30            308.00     0.0140     2.00       2.00       0          0
31B              7-122            4-43             295.00     0.0140     0          -0.49      0          0
31A              7-121            7-122            232.00     0.0140     0.94       0          0          0
3A               17-4             17-6             565.00     0.0140     3.00       2.52       0          0
6E               7-75             7-76             234.00     0.0140     -2.99      -3.10      0          0
6F               7-76             4-38             395.00     0.0140     -3.10      -3.30      0          0
25               3-21             4-4              1252.00    0.0140     1.00       -0.26      0          0
32C              2-12             2-4              600.00     0.0140     -3.50      -5.50      0          0
14A              9-19             6-39             295.00     0.0140     5.57       3.40       0          0
14B              6-39             6-38             120.00     0.0140     3.40       4.83       0          0
14C              6-38             6-37             90.00      0.0140     4.83       5.00       0          0
14D              6-37             6-33             325.00     0.0140     5.00       4.40       0          0
14E              6-33             6-31             135.00     0.0140     4.40       3.17       0          0
13A              7-46             7-44             250.00     0.0140     4.05       3.85       0          0
13B              7-44             7-43             80.00      0.0140     3.85       -3.58      0          0
2A               13-2             12-12            450.00     0.0140     8.50       7.00       0          0
1A1              16-9             16-7             299.00     0.0140     0.30       -0.24      0          0
1A2              16-7             16-1             281.00     0.0140     -0.74      -1.23      0          0
1B1              16-13            16-12            200.00     0.0140     0.93       0.85       0          0
1B2              16-12            16-1             118.00     0.0140     0.85       0.39       0          0
1C1              16-4             16-3             156.00     0.0140     -0.65      -0.92      0          0
1C2              16-3             16-1             281.00     0.0140     -1.42      -1.73      0          0
1D               16-1             13-30            570.00     0.0140     -0.70      -1.10      0          0

[XSECTIONS]
;;Link           Shape        Geom1      Geom2      Geom3      Geom4      Barrels
;;-------------- ------------ ---------- ---------- ---------- ---------- ----------
30A              CIRCULAR     6.00       0          0          0          1
21B              RECT_CLOSED  2.00       6.00       0          0          1
18               CIRCULAR     2.00       0          0          0          1
20A              CIRCULAR     3.00       0          0          0          1
6B               HORSESHOE    3.00       6.00       0          0          1
6C               HORSESHOE    3.00       0          0          0          1
6D               HORSESHOE    3.00       0          0          0          1
30B              CIRCULAR     6.00       0          0          0          1
30C              HORSESHOE    3.00       0          0          0          1
15B              CIRCULAR     4.50       0          0          0          1
15C              CIRCULAR     4.50       0          0          0          1
6A               HORSESHOE    3.00       6.00       0          0          1
11B              HORSESHOE    2.00       0          0          0          1
11A              HORSESHOE    1.50       0          0          0          1
15A              CIRCULAR     3.00       0          0          0          1
21C              RECT_CLOSED  2.00       6.00       0          0          1
21D              RECT_CLOSED  2.00       6.00       0          0          1
21E              RECT_CLOSED  2.00       6.00       0          0          1
2C               CIRCULAR     2.50       0          0          0          1
2B               CIRCULAR     2.00       0          0          0          1
3B               CIRCULAR     3.00       0          0          0          1
9C1              CIRCULAR     3.00       0          0          0          1
9C2              CIRCULAR     3.00       0          0          0          1
15F              HORSESHOE    3.00       0          0          0          1
22B              CIRCULAR     3.00       0          0          0          1
22A              CIRCULAR     2.50       0          0          0          1
15D              CIRCULAR     4.50       0          0          0          1
15E              CIRCULAR     4.50       0          0          0          1
20B              CIRCULAR     3.00       0          0          0          1
20C              CIRCULAR     3.00       0          0          0          1
32A              HORSESHOE    3.50       7.00       0          0          1
369.1            HORSESHOE    3.50       7.00       0          0          1
17A              CIRCULAR     2.00       0          0          0          1
17B              CIRCULAR     2.00       0          0          0          1
3C               CIRCULAR     4.00       0          0          0          1
3D               CIRCULAR     4.00       0          0          0          1
3E               CIRCULAR     4.00       0          0          0          1
3F               CIRCULAR     4.00       0          0          0          1
3G               CIRCULAR     4.00       0          0          0          1
3H               CIRCULAR     4.00       0          0          0          1
31B              HORSESHOE    2.00       0          0          0          1
31A              HORSESHOE    2.00       0          0          0          1
3A               CIRCULAR     3.00       0          0          0          1
6E               HORSESHOE    3.00       0          0          0          1
6F               HORSESHOE    3.00       0          0          0          1
25               CIRCULAR     3.00       0          0          0          1
32C              HORSESHOE    3.50       0          0          0          1
14A              CIRCULAR     2.00       0          0          0          1
14B              CIRCULAR     2.00       0          0          0          1
14C              CIRCULAR     2.00       0          0          0          1
14D              CIRCULAR     2.00       0          0          0          1
14E              CIRCULAR     2.00       0          0          0          1
13A              CIRCULAR     2.00       0          0          0          1
13B              CIRCULAR     2.00       0          0          0          1
2A               CIRCULAR     1.00       0          0          0          1
1A1              CIRCULAR     2.50       0          0          0          1
1A2              CIRCULAR     3.00       0          0          0          1
1B1              CIRCULAR     1.50       0          0          0          1
1B2              CIRCULAR     2.00       0          0          0          1
1C1              CIRCULAR     3.00       0          0          0          1
1C2              CIRCULAR     3.50       0          0          0          1
1D               HORSESHOE    2.50       0          0          0          1

[LOSSES]
;;Link           Inlet      Outlet     Average    Flap Gate
;;-------------- ---------- ---------- ---------- ----------
30A              0          0          0          NO
21B              0          0          0          NO
18               0          0          0          NO
20A              0          0          0          NO
6B               0          0          0          NO
6C               0          0          0          NO
6D               0          0          0          NO
30B              0          0          0          NO
30C              0          0          0          NO
15B              0          0          0          NO
15C              0          0          0          NO
6A               0          0          0          NO
11B              0          0          0          NO
11A              0          0          0          NO
15A              0          0          0          NO
21C              0          0          0          NO
21D              0          0          0          NO
21E              0          0          0          NO
2C               0          0          0          NO
2B               0          0          0          NO
3B               0          0          0          NO
9C1              0          0          0          NO
9C2              0          0          0          NO
15F              0          0          0          NO
22B              0          0          0          NO
22A              0          0          0          NO
15D              0          0          0          NO
15E              0          0          0          NO
20B              0          0          0          NO
20C              0          0          0          NO
32A              0          0          0          NO
369.1            0          0          0          NO
17A              0          0          0          NO
17B              0          0          0          NO
3C               0          0          0          NO
3D               0          0          0          NO
3E               0          0          0          NO
3F               0          0          0          NO
3G               0          0          0          NO
3H               0          0          0          NO
31B              0          0          0          NO
31A              0          0          0          NO
3A               0          0          0          NO
6E               0          0          0          NO
6F               0          0          0          NO
25               0          0          0          NO
32C              0          0          0          NO
14A              0          0          0          NO
14B              0          0          0          NO
14C              0          0          0          NO
14D              0          0          0          NO
14E              0          0          0          NO
13A              0          0          0          NO
13B              0          0          0          NO
2A               0          0          0          NO
1A1              0          0          0          NO
1A2              0          0          0          NO
1B1              0          0          0          NO
1B2              0          0          0          NO
1C1              0          0          0          NO
1C2              0          0          0          NO
1D               0          0          0          NO

[INFLOWS]
;;Node           Constituent  Time Series      Type     Mfactor  Sfactor  Baseline Pattern
;;-------------- ------------ ---------------- -------- -------- -------- -------- --------
3-21             FLOW         ""               FLOW     1.0      1.0      0.69
6-2              FLOW         ""               FLOW     1.0      1.0      0.49
6-28             FLOW         ""               FLOW     1.0      1.0      3.77
MH-B             FLOW         ""               FLOW     1.0      1.0      4.13
7-92             FLOW         ""               FLOW     1.0      1.0      8.89
7-121            FLOW         ""               FLOW     1.0      1.0      0.33
14-3             FLOW         ""               FLOW     1.0      1.0      0.67
17-7             FLOW         ""               FLOW     1.0      1.0      0.92
12-12            FLOW         ""               FLOW     1.0      1.0      0.06
10-44            FLOW         ""               FLOW     1.0      1.0      3.46
9-16             FLOW         ""               FLOW     1.0      1.0      0.33
3-6              FLOW         ""               FLOW     1.0      1.0      0.93
14-1             FLOW         ""               FLOW     1.0      1.0      1.28
17-4             FLOW         ""               FLOW     1.0      1.0      1.25
9-19             FLOW         ""               FLOW     1.0      1.0      1.14
7-46             FLOW         ""               FLOW     1.0      1.0      0.90
13-2             FLOW         ""               FLOW     1.0      1.0      0.28
16-3             FLOW         ""               FLOW     1.0      1.0      0.29
16-4             FLOW         ""               FLOW     1.0      1.0      0.16
16-7             FLOW         ""               FLOW     1.0      1.0      0.31
16-9             FLOW         ""               FLOW     1.0      1.0      0.51

[COORDINATES]
;;Node           X-Coord            Y-Coord
;;-------------- ------------------ ------------------
3-21             4.42               -11.63            
4-4              8.05               38.11             
4-9              18.10              53.20             
4-38             30.59              71.19             
4-43             47.30              97.26             
6-2              59.47              -99.46            
6-10             59.45              -68.44            
6-28             59.18              -9.80             
7-5              58.81              52.85             
MH-B             104.34             53.01             
13-7             143.92             71.27             
10-5             125.10             71.26             
7-92             101.77             71.06             
7-75             75.63              71.34             
7-61             75.26              26.10             
7-43             75.36              5.77              
6-41             75.19              -21.40            
7-121            79.97              147.29            
11-43            120.99             195.09            
13-30            164.68             71.15             
14-3             148.72             195.09            
6-31             75.27              -45.40            
4-13             46.46              53.04             
4-10             35.32              53.06             
13-32            164.32             4.39              
17-7             164.20             236.24            
17-6             198.51             236.16            
12-12            164.09             -42.57            
10-44            120.61             130.08            
10-45            120.61             167.32            
9-16             104.61             -68.30            
3-43             4.79               -58.40            
3-6              4.79               -100.26           
7-74             75.50              45.50             
2-12             20.43              121.37            
7-4              59.10              17.52             
4-46             34.25              109.80            
6-50             82.25              -68.36            
14-2             164.20             211.45            
14-1             164.40             189.17            
13-43            164.42             158.19            
13-42            164.44             127.49            
13-41            164.42             100.56            
7-122            62.68              120.31            
17-4             198.56             264.38            
7-76             58.52              71.46             
2-4              5.64               133.64            
9-19             152.63             -45.37            
6-39             135.25             -45.37            
6-38             119.00             -45.37            
6-37             105.02             -45.37            
6-33             89.53              -45.37            
7-46             124.29             5.51              
7-44             98.97              5.51              
13-2             195.33             -42.74            
16-1             181.37             71.48             
16-3             181.37             34.92             
16-4             181.78             -0.12             
16-7             180.99             100.50            
16-9             180.99             135.55            
16-12            195.71             71.48             
16-13            209.34             71.48             

[MAP]
DIMENSIONS 4.42 -100.26 209.34 264.38
Units      None

[REPORT]
INPUT            YES
SUBCATCHMENTS    ALL
NODES            ALL
LINKS            ALL



