;; SWMM5 .inp converted from XPSWMM .xp file
;; Generated by XPSWMM Card Reader
;; Source format: XP_CARD | Original title: Example 4

[TITLE]
;;Project Title/Notes
Example 4

[OPTIONS]
FLOW_UNITS           CFS
INFILTRATION         HORTON
FLOW_ROUTING         DYNWAVE
LINK_OFFSETS         DEPTH
MIN_SLOPE            0.0
ALLOW_PONDING        NO
SKIP_STEADY_STATE    NO
ROUTING_STEP         00:00:15
VARIABLE_STEP        0.75
INERTIAL_DAMPING     PARTIAL
NORMAL_FLOW_LIMITED  BOTH

[JUNCTIONS]
;;Name           Elev       MaxDepth   InitDepth  SurDepth   Aponded
;;-------------- ---------- ---------- ---------- ---------- ----------
0                4976.00    0          0          0          0
0                4970.50    0          0          0          0
0                4976.00    0          0          0          0
0                4974.00    0          0          0          0
0                4972.80    0          0          0          0
0                4972.50    0          0          0          0
0                4974.50    0          0          0          0
0                4970.00    0          0          0          0
0                4967.80    0          0          0          0
0                4967.50    0          0          0          0
0                4968.50    0          0          0          0
0                4976.80    0          0          0          0
0                4974.00    0          0          0          0
0                4974.90    0          0          0          0
0                4977.50    0          0          0          0
0                4975.00    0          0          0          0
0                4976.50    0          0          0          0
0                4972.00    0          0          0          0
0                4975.50    0          0          0          0
0                4972.00    0          0          0          0

[CONDUITS]
;;Name           From             To               Length     Roughness  InOffset   OutOffset  InitFlow   MaxFlow
;;-------------- ---------------- ---------------- ---------- ---------- ---------- ---------- ---------- ----------
236              0                0                185.00     0.0500     4971.26    4969.80    0          0
202              0                0                526.00     0.0160     4969.00    4967.00    0          0
203              0                0                109.00     0.0160     4973.00    4971.00    0          0
204              0                0                133.00     0.0500     4971.00    4969.80    0          0
205              0                0                207.00     0.0500     4969.80    4969.00    0          0
207              0                0                140.00     0.0500     4971.50    4969.00    0          0
206              0                0                95.00      0.0160     4969.00    4966.50    0          0
208              0                0                166.00     0.0500     4966.50    4964.80    0          0
209              0                0                320.00     0.0500     4964.80    4963.80    0          0
210              0                0                145.00     0.0500     4963.80    4963.00    0          0
211              0                0                89.00      0.0160     4963.00    4962.00    0          0
212              0                0                281.70     0.0500     4973.80    4971.57    0          0
214              0                0                275.70     0.0160     4972.90    4970.63    0          0
238              0                0                157.48     0.0160     4970.30    4969.00    0          0
215              0                0                444.75     0.0500     4974.50    4973.00    0          0
217              0                0                200.16     0.0500     4973.50    4969.80    0          0
216              0                0                300.42     0.0160     4973.50    4971.50    0          0
201              0                0                40.00      0.0140     4971.57    4971.26    0          0
213              0                0                40.00      0.0140     4970.63    4970.30    0          0

[XSECTIONS]
;;Link           Shape        Geom1      Geom2      Geom3      Geom4      Barrels
;;-------------- ------------ ---------- ---------- ---------- ---------- ----------
236              TRAPEZOIDAL  3.00       5.00       0          0          1
202              TRAPEZOIDAL  1.50       0          0          0          1
203              CIRCULAR     2.25       0          0          0          1
204              TRAPEZOIDAL  3.00       5.00       0          0          1
205              TRAPEZOIDAL  3.00       5.00       0          0          1
207              TRAPEZOIDAL  3.00       5.00       0          0          1
206              CIRCULAR     3.50       0          0          0          1
208              TRAPEZOIDAL  3.00       5.00       0          0          1
209              TRAPEZOIDAL  3.00       5.00       0          0          1
210              TRAPEZOIDAL  3.00       5.00       0          0          1
211              CIRCULAR     4.75       0          0          0          1
212              TRAPEZOIDAL  3.00       5.00       0          0          1
214              TRAPEZOIDAL  2.00       0          0          0          1
238              TRAPEZOIDAL  1.50       0          0          0          1
215              TRAPEZOIDAL  3.00       5.00       0          0          1
217              TRAPEZOIDAL  3.00       5.00       0          0          1
216              TRAPEZOIDAL  1.50       0          0          0          1
201              CIRCULAR     2.00       0          0          0          1
213              CIRCULAR     1.00       0          0          0          4

[LOSSES]
;;Link           Inlet      Outlet     Average    Flap Gate
;;-------------- ---------- ---------- ---------- ----------
236              0          0          0          NO
202              0          0          0          NO
203              0          0          0          NO
204              0          0          0          NO
205              0          0          0          NO
207              0          0          0          NO
206              0          0          0          NO
208              0          0          0          NO
209              0          0          0          NO
210              0          0          0          NO
211              0          0          0          NO
212              0          0          0          NO
214              0          0          0          NO
238              0          0          0          NO
215              0          0          0          NO
217              0          0          0          NO
216              0          0          0          NO
201              0          0          0          NO
213              0          0          0          NO

[COORDINATES]
;;Node           X-Coord            Y-Coord
;;-------------- ------------------ ------------------
0                -563.77            660.96            
0                -507.67            1219.29           
0                -407.61            403.44            
0                -364.48            503.48            
0                -361.03            629.39            
0                -321.35            820.85            
0                -210.94            829.47            
0                -342.05            913.99            
0                -369.65            1070.95           
0                -141.93            1252.06           
0                -21.17             1332.19           
0                -817.90            681.69            
0                -670.81            1142.40           
0                -904.17            1060.52           
0                -198.86            120.56            
0                32.93              691.84            
0                -207.27            502.42            
0                20.69              1410.23           
0                -525.35            653.76            
0                -626.70            1160.65           

[MAP]
DIMENSIONS -904.17 120.56 32.93 1410.23
Units      None

[REPORT]
INPUT            YES
SUBCATCHMENTS    ALL
NODES            ALL
LINKS            ALL



