;; SWMM5 .inp converted from XPSWMM .xp file
;; Generated by XPSWMM Card Reader
;; Source format: XP_CARD | Original title: Lamberton Creek, Grand Rapids Michigan

[TITLE]
;;Project Title/Notes
Lamberton Creek, Grand Rapids Michigan

[OPTIONS]
FLOW_UNITS           CFS
INFILTRATION         HORTON
FLOW_ROUTING         DYNWAVE
LINK_OFFSETS         DEPTH
MIN_SLOPE            0.0
ALLOW_PONDING        NO
SKIP_STEADY_STATE    NO
INERTIAL_DAMPING     PARTIAL
NORMAL_FLOW_LIMITED  BOTH

[JUNCTIONS]
;;Name           Elev       MaxDepth   InitDepth  SurDepth   Aponded
;;-------------- ---------- ---------- ---------- ---------- ----------
S-A-030          0          0          0          0          0
S-A-050          0          0          0          0          0
S-B-030          0          0          0          0          0
S-C-040          0          0          0          0          0
S-A-120          0          0          0          0          0
S-D-030          0          0          0          0          0
S-F-020          0          0          0          0          0
S-E-010          0          0          0          0          0
S-A-160          0          0          0          0          0
S-A-170          0          0          0          0          0
S-A-200          0          0          0          0          0
S-A-230          0          0          0          0          0
S-H-020          0          0          0          0          0
S-A-240          0          0          0          0          0
S-I-020          0          0          0          0          0
S-J-010          0          0          0          0          0
S-A-280          0          0          0          0          0
S-H-040          0          0          0          0          0
S-A-180          0          0          0          0          0
S-A-080          0          0          0          0          0
S-G-020          0          0          0          0          0
S-G-030          0          0          0          0          0
S-G-070          0          0          0          0          0
S-G-050          0          0          0          0          0
S-G-060          0          0          0          0          0
L-A-060          0          0          0          0          0
L-B-020          0          0          0          0          0
L-A-110          0          0          0          0          0
L-A-150          0          0          0          0          0
L-C-020          0          0          0          0          0
L-A-180          0          0          0          0          0
E-A-020          0          0          0          0          0
P-A-020          0          0          0          0          0
P-A-030          0          0          0          0          0
P-C-030          0          0          0          0          0
P-C-040          0          0          0          0          0
P-A-150          0          0          0          0          0
P-A-190          0          0          0          0          0
P-B-030          0          0          0          0          0
E-A-040          0          0          0          0          0
E-A-050          0          0          0          0          0
E-B-020          0          0          0          0          0
S-A-270          0          0          0          0          0
S-A-260          0          0          0          0          0
S-A-250          0          0          0          0          0
S-I-010          0          0          0          0          0
S-A-220          0          0          0          0          0
S-H-030          0          0          0          0          0
S-H-010          0          0          0          0          0
S-A-210          0          0          0          0          0
S-G-040          0          0          0          0          0
S-G-010          0          0          0          0          0
S-A-190          0          0          0          0          0
S-A-150          0          0          0          0          0
S-A-140          0          0          0          0          0
S-F-010          0          0          0          0          0
S-A-130          0          0          0          0          0
S-A-110          0          0          0          0          0
S-A-100          0          0          0          0          0
S-D-020          0          0          0          0          0
S-D-010          0          0          0          0          0
S-A-090          0          0          0          0          0
S-C-030          0          0          0          0          0
S-C-020          0          0          0          0          0
S-C-010          0          0          0          0          0
S-A-070          0          0          0          0          0
S-A-060          0          0          0          0          0
S-B-020          0          0          0          0          0
S-B-010          0          0          0          0          0
S-A-040          0          0          0          0          0
S-A-020          0          0          0          0          0
S-A-010          0          0          0          0          0
E-B-010          0          0          0          0          0
E-A-030          0          0          0          0          0
E-A-010          0          0          0          0          0
L-A-200          0          0          0          0          0
P-A-180          0          0          0          0          0
P-A-170          0          0          0          0          0
P-A-160          0          0          0          0          0
P-A-140          0          0          0          0          0
P-A-130          0          0          0          0          0
P-A-120          0          0          0          0          0
P-A-110          0          0          0          0          0
P-A-100          0          0          0          0          0
P-A-090          0          0          0          0          0
P-C-020          0          0          0          0          0
P-C-010          0          0          0          0          0
P-A-080          0          0          0          0          0
P-A-070          0          0          0          0          0
P-A-060          0          0          0          0          0
P-A-050          0          0          0          0          0
P-A-040          0          0          0          0          0
P-B-020          0          0          0          0          0
P-B-010          0          0          0          0          0
P-A-010          0          0          0          0          0
L-A-190          0          0          0          0          0
L-A-170          0          0          0          0          0
L-A-160          0          0          0          0          0
L-A-140          0          0          0          0          0
L-A-130          0          0          0          0          0
L-A-120          0          0          0          0          0
L-A-100          0          0          0          0          0
L-A-090          0          0          0          0          0
L-A-080          0          0          0          0          0
L-A-070          0          0          0          0          0
L-A-040          0          0          0          0          0
L-A-030          0          0          0          0          0
L-A-020          0          0          0          0          0
L-A-010          0          0          0          0          0
Outfall          0          0          0          0          0
L-C-010          0          0          0          0          0
L-B-010          0          0          0          0          0

[CONDUITS]
;;Name           From             To               Length     Roughness  InOffset   OutOffset  InitFlow   MaxFlow
;;-------------- ---------------- ---------------- ---------- ---------- ---------- ---------- ---------- ----------
S-A-280          S-A-280          S-A-270          1000.00    0          17.40      0          0          0
S-J-010          S-J-010          S-A-270          480.00     0          8.35       0          0          0
S-A-270          S-A-270          S-A-260          1050.00    0          18.27      0          0          0
S-A-260          S-A-260          S-A-250          80.00      0.0130     4.02       0          0          0
S-A-250          S-A-250          S-A-240          840.00     0          0.34       0          0          0
S-I-020          S-I-020          S-I-010          1650.00    0          24.75      0          0          0
S-I-010          S-I-010          S-A-240          90.00      0.0130     0.99       0          0          0
S-A-240          S-A-240          S-A-230          1585.00    0          10.94      0          0          0
S-A-230          S-A-230          S-A-220          270.00     0.0130     1.81       0          0          0
S-A-220          S-A-220          S-A-210          1460.00    0          10.22      0          0          0
S-H-040          S-H-040          S-H-030          1500.00    0          28.50      0          0          0
S-H-030          S-H-030          S-H-020          550.00     0          10.45      0          0          0
S-H-020          S-H-020          S-H-010          290.00     0.0130     6.96       0          0          0
S-H-010          S-H-010          S-A-210          1080.00    0          8.21       0          0          0
S-A-210          S-A-210          S-A-200          950.00     0          9.31       0          0          0
S-G-060          S-G-060          S-G-050          275.00     0          77.63      0          0          0
S-G-050          S-G-050          S-G-040          875.00     0          4.99       0          0          0
S-G-040          S-G-040          S-G-030          700.00     0          18.20      0          0          0
S-G-070          S-G-070          S-G-030          1650.00    0          17.00      0          0          0
S-G-030          S-G-030          S-G-020          350.00     0          3.60       0          0          0
S-G-020          S-G-020          S-G-010          2175.00    0          20.01      0          0          0
S-G-010          S-G-010          S-A-200          1200.00    0          3.96       0          0          0
S-A-200          S-A-200          S-A-190          550.00     0          1.81       0          0          0
S-A-190          S-A-190          S-A-180          1450.00    0          5.95       0          0          0
S-A-180          S-A-180          S-A-170          875.00     0          3.41       0          0          0
S-A-170          S-A-170          S-A-160          1350.00    0          8.10       0          0          0
S-A-160          S-A-160          S-A-150          80.00      0.0250     0.08       0          0          0
S-A-150          S-A-150          S-A-140          1200.00    0          5.04       0          0          0
S-A-140          S-A-140          S-A-130          875.00     0          3.67       0          0          0
S-F-020          S-F-020          S-F-010          410.00     0.0130     2.05       0          0          0
S-F-010          S-F-010          S-A-130          230.00     0.0130     15.64      0          0          0
S-A-130          S-A-130          S-A-120          1150.00    0          5.98       0          0          0
S-E-010          S-E-010          S-A-120          2990.00    0          19.73      0          0          0
S-A-120          S-A-120          S-A-110          250.00     0          1.30       0          0          0
S-A-110          S-A-110          S-A-100          70.00      0.0130     0.20       0          0          0
S-A-100          S-A-100          S-A-090          550.00     0          1.98       0          0          0
S-D-030          S-D-030          S-D-020          350.00     0.0130     10.01      0          0          0
S-D-020          S-D-020          S-D-010          250.00     0.0130     1.13       0          0          0
S-D-010          S-D-010          S-A-090          550.00     0.0130     24.42      0          0          0
S-A-090          S-A-090          S-A-080          50.00      0.0130     0.40       0          0          0
S-A-080          S-A-080          S-A-070          1800.00    0          5.60       0          0          0
S-C-040          S-C-040          S-C-030          150.00     0.0130     0.36       0          0          0
S-C-030          S-C-030          S-C-020          225.00     0.0130     11.03      0          0          0
S-C-020          S-C-020          S-C-010          180.00     0.0130     4.32       0          0          0
S-C-010          S-C-010          S-A-070          600.00     0.0300     3.00       0          0          0
S-A-070          S-A-070          S-A-060          675.00     0          2.90       0          0          0
S-A-060          S-A-060          S-A-050          925.00     0          5.00       0          0          0
S-B-030          S-B-030          S-B-020          310.00     0.0130     3.07       0          0          0
S-B-020          S-B-020          S-B-010          100.00     0.0130     0.37       0          0          0
S-B-010          S-B-010          S-A-050          1400.00    0.0130     37.24      0          0          0
S-A-050          S-A-050          S-A-040          30.00      0.0130     0.03       0          0          0
S-A-040          S-A-040          S-A-030          1400.00    0          0.98       0          0          0
S-A-030          S-A-030          S-A-020          2100.00    0          9.24       0          0          0
S-A-020          S-A-020          S-A-010          60.00      0.0130     0.15       0          0          0
S-A-010          S-A-010          L-A-190          1080.00    0          4.10       0          0          0
E-A-050          E-A-050          E-A-040          1700.00    0          89.60      0          0          0
E-B-020          E-B-020          E-B-010          710.00     0          4.97       0          0          0
E-B-010          E-B-010          E-A-040          650.00     0          0.97       0          0          0
E-A-040          E-A-040          E-A-030          1580.00    0          1.26       0          0          0
E-A-030          E-A-030          E-A-020          800.00     0          0.64       0          0          0
E-A-020          E-A-020          E-A-010          60.00      0.0130     0.05       0          0          0
E-A-010          E-A-010          L-A-200          925.00     0          0.74       0          0          0
L-A-200          L-A-200          L-A-190          700.00     0          1.12       0          0          0
P-A-190          P-A-190          P-A-180          200.00     0.0200     0.80       0          0          0
P-A-180          P-A-180          P-A-170          300.00     0.0200     18.00      0          0          0
P-A-170          P-A-170          P-A-160          320.00     0.0200     7.36       0          0          0
P-A-160          P-A-160          P-A-150          90.00      0.0200     0.90       0          0          0
P-A-150          P-A-150          P-A-140          250.00     0.0200     2.50       0          0          0
P-A-140          P-A-140          P-A-130          220.00     0.0200     0.88       0          0          0
P-A-130          P-A-130          P-A-120          750.00     0.0200     1.13       0          0          0
P-A-120          P-A-120          P-A-110          350.00     0          0.35       0          0          0
P-A-110          P-A-110          P-A-100          30.00      0.0250     0.04       0          0          0
P-A-100          P-A-100          P-A-090          50.00      0.0250     0.07       0          0          0
P-A-090          P-A-090          P-A-080          375.00     0          0.56       0          0          0
P-C-040          P-C-040          P-C-030          1150.00    0          8.05       0          0          0
P-C-030          P-C-030          P-C-020          300.00     0          2.10       0          0          0
P-C-020          P-C-020          P-C-010          50.00      0.0200     0.20       0          0          0
P-C-010          P-C-010          P-A-080          1100.00    0          1.65       0          0          0
P-A-080          P-A-080          P-A-070          150.00     0          0.23       0          0          0
P-A-070          P-A-070          P-A-060          90.00      0.0250     0.36       0          0          0
P-A-060          P-A-060          P-A-050          150.00     0          0.75       0          0          0
P-A-050          P-A-050          P-A-040          30.00      0.0250     0.15       0          0          0
P-A-040          P-A-040          P-A-030          125.00     0          0.63       0          0          0
P-B-030          P-B-030          P-B-020          210.00     0.0200     1.68       0          0          0
P-B-020          P-B-020          P-B-010          200.00     0.0200     1.60       0          0          0
P-B-010          P-B-010          P-A-030          322.00     0.0200     2.58       0          0          0
P-A-030          P-A-030          P-A-020          750.00     0          3.30       0          0          0
P-A-020          P-A-020          P-A-010          210.00     0.0130     0.36       0          0          0
P-A-010          P-A-010          L-A-200          875.00     0          3.85       0          0          0
L-A-190          L-A-190          L-A-180          1330.00    0          1.73       0          0          0
L-A-180          L-A-180          L-A-170          350.00     0          0.46       0          0          0
L-A-170          L-A-170          L-A-160          75.00      0.0250     0.07       0          0          0
L-A-160          L-A-160          L-A-150          1150.00    0          1.26       0          0          0
L-A-150          L-A-150          L-A-140          131.00     0.0130     0.66       0          0          0
L-A-140          L-A-140          L-A-130          1050.00    0          5.25       0          0          0
L-A-130          L-A-130          L-A-120          400.00     0          2.00       0          0          0
L-A-120          L-A-120          L-A-110          65.00      0.0250     0.71       0          0          0
L-A-110          L-A-110          L-A-100          775.00     0          1.71       0          0          0
L-A-100          L-A-100          L-A-090          450.00     0          0.99       0          0          0
L-A-090          L-A-090          L-A-080          720.00     0          1.58       0          0          0
L-A-080          L-A-080          L-A-070          70.50      0.0130     0.28       0          0          0
L-A-070          L-A-070          L-A-060          175.00     0          0.39       0          0          0
L-A-050          L-A-060          L-A-040          190.00     0          0.11       0          0          0
L-A-040          L-A-040          L-A-030          4.00       0.0180     0.00       0          0          0
L-A-030          L-A-030          L-A-020          190.00     0          0.11       0          0          0
L-A-020          L-A-020          L-A-010          60.00      0.0180     0.05       0          0          0
L-A-010          L-A-010          Outfall          610.00     0          16.47      0          0          0
L-C-020          L-C-020          L-C-010          550.00     0.0130     5.14       0          0          0
L-C-010          L-C-010          L-A-160          300.00     0.0130     8.55       0          0          0
L-B-020          L-B-020          L-B-010          185.00     0.0130     0.74       0          0          0
L-B-010          L-B-010          L-A-080          225.00     0.0130     0.90       0          0          0

[XSECTIONS]
;;Link           Shape        Geom1      Geom2      Geom3      Geom4      Barrels
;;-------------- ------------ ---------- ---------- ---------- ---------- ----------
S-A-280          IRREGULAR    0          0          0          0          301
S-J-010          IRREGULAR    0          0          0          0          302
S-A-270          IRREGULAR    0          0          0          0          101
S-A-260          CIRCULAR     2.00       0          0          0          1
S-A-250          IRREGULAR    0          0          0          0          103
S-I-020          IRREGULAR    0          0          0          0          303
S-I-010          CIRCULAR     3.00       0          0          0          1
S-A-240          IRREGULAR    0          0          0          0          104
S-A-230          CIRCULAR     3.00       0          0          0          1
S-A-220          IRREGULAR    0          0          0          0          106
S-H-040          IRREGULAR    0          0          0          0          305
S-H-030          IRREGULAR    0          0          0          0          107
S-H-020          CIRCULAR     4.00       0          0          0          1
S-H-010          IRREGULAR    0          0          0          0          109
S-A-210          IRREGULAR    0          0          0          0          110
S-G-060          IRREGULAR    0          0          0          0          193
S-G-050          IRREGULAR    0          0          0          0          195
S-G-040          IRREGULAR    0          0          0          0          111
S-G-070          IRREGULAR    0          0          0          0          112
S-G-030          IRREGULAR    0          0          0          0          113
S-G-020          IRREGULAR    0          0          0          0          114
S-G-010          IRREGULAR    0          0          0          0          115
S-A-200          IRREGULAR    0          0          0          0          116
S-A-190          IRREGULAR    0          0          0          0          117
S-A-180          IRREGULAR    0          0          0          0          118
S-A-170          IRREGULAR    0          0          0          0          119
S-A-160          CIRCULAR     7.50       0          0          0          1
S-A-150          IRREGULAR    0          0          0          0          121
S-A-140          IRREGULAR    0          0          0          0          122
S-F-020          CIRCULAR     2.50       0          0          0          1
S-F-010          CIRCULAR     2.50       0          0          0          1
S-A-130          IRREGULAR    0          0          0          0          123
S-E-010          IRREGULAR    0          0          0          0          124
S-A-120          IRREGULAR    0          0          0          0          125
S-A-110          CIRCULAR     8.00       0          0          0          1
S-A-100          IRREGULAR    0          0          0          0          127
S-D-030          CIRCULAR     2.50       0          0          0          1
S-D-020          CIRCULAR     2.50       0          0          0          1
S-D-010          CIRCULAR     2.50       0          0          0          1
S-A-090          CIRCULAR     8.00       0          0          0          1
S-A-080          IRREGULAR    0          0          0          0          130
S-C-040          CIRCULAR     1.75       0          0          0          1
S-C-030          CIRCULAR     1.50       0          0          0          1
S-C-020          CIRCULAR     1.50       0          0          0          1
S-C-010          IRREGULAR    0          0          0          0          313
S-A-070          IRREGULAR    0          0          0          0          131
S-A-060          IRREGULAR    0          0          0          0          132
S-B-030          CIRCULAR     2.50       0          0          0          1
S-B-020          CIRCULAR     2.50       0          0          0          1
S-B-010          CIRCULAR     2.50       0          0          0          1
S-A-050          CIRCULAR     6.50       0          0          0          1
S-A-040          IRREGULAR    0          0          0          0          137
S-A-030          IRREGULAR    0          0          0          0          138
S-A-020          CIRCULAR     5.00       0          0          0          1
S-A-010          IRREGULAR    0          0          0          0          140
E-A-050          IRREGULAR    0          0          0          0          141
E-B-020          IRREGULAR    0          0          0          0          142
E-B-010          IRREGULAR    0          0          0          0          143
E-A-040          IRREGULAR    0          0          0          0          144
E-A-030          IRREGULAR    0          0          0          0          145
E-A-020          CIRCULAR     8.50       0          0          0          1
E-A-010          IRREGULAR    0          0          0          0          147
L-A-200          IRREGULAR    0          0          0          0          148
P-A-190          CIRCULAR     2.50       0          0          0          1
P-A-180          CIRCULAR     2.50       0          0          0          1
P-A-170          CIRCULAR     3.00       0          0          0          1
P-A-160          CIRCULAR     3.00       0          0          0          1
P-A-150          CIRCULAR     3.00       0          0          0          1
P-A-140          CIRCULAR     4.00       0          0          0          1
P-A-130          CIRCULAR     4.50       0          0          0          1
P-A-120          IRREGULAR    0          0          0          0          150
P-A-110          CIRCULAR     4.00       0          0          0          1
P-A-100          HORSESHOE    3.67       6.00       0          0          1
P-A-090          IRREGULAR    0          0          0          0          154
P-C-040          IRREGULAR    0          0          0          0          155
P-C-030          IRREGULAR    0          0          0          0          157
P-C-020          CIRCULAR     2.00       0          0          0          1
P-C-010          IRREGULAR    0          0          0          0          159
P-A-080          IRREGULAR    0          0          0          0          160
P-A-070          HORSESHOE    3.67       6.67       0          0          1
P-A-060          IRREGULAR    0          0          0          0          162
P-A-050          HORSESHOE    3.67       6.67       0          0          1
P-A-040          IRREGULAR    0          0          0          0          164
P-B-030          CIRCULAR     3.00       0          0          0          1
P-B-020          CIRCULAR     3.00       0          0          0          1
P-B-010          CIRCULAR     3.50       0          0          0          1
P-A-030          IRREGULAR    0          0          0          0          166
P-A-020          CIRCULAR     5.00       0          0          0          1
P-A-010          IRREGULAR    0          0          0          0          168
L-A-190          IRREGULAR    0          0          0          0          169
L-A-180          IRREGULAR    0          0          0          0          170
L-A-170          HORSESHOE    7.01       14.00      0          0          1
L-A-160          IRREGULAR    0          0          0          0          172
L-A-150          RECT_CLOSED  7.20       8.00       0          0          1
L-A-140          IRREGULAR    0          0          0          0          174
L-A-130          IRREGULAR    0          0          0          0          175
L-A-120          CIRCULAR     7.00       0          0          0          1
L-A-110          IRREGULAR    0          0          0          0          177
L-A-100          IRREGULAR    0          0          0          0          178
L-A-090          IRREGULAR    0          0          0          0          180
L-A-080          RECT_CLOSED  4.00       8.00       0          0          1
L-A-070          IRREGULAR    0          0          0          0          182
L-A-050          IRREGULAR    0          0          0          0          185
L-A-040          CIRCULAR     4.31       0          0          0          2
L-A-030          IRREGULAR    0          0          0          0          187
L-A-020          RECT_CLOSED  2.50       15.00      0          0          1
L-A-010          IRREGULAR    0          0          0          0          189
L-C-020          CIRCULAR     2.25       0          0          0          1
L-C-010          CIRCULAR     2.25       0          0          0          1
L-B-020          CIRCULAR     2.83       0          0          0          1
L-B-010          CIRCULAR     2.00       0          0          0          1

[LOSSES]
;;Link           Inlet      Outlet     Average    Flap Gate
;;-------------- ---------- ---------- ---------- ----------
S-A-280          0          0          0          NO
S-J-010          0          0          0          NO
S-A-270          0          0          0          NO
S-A-260          0          0          0          NO
S-A-250          0          0          0          NO
S-I-020          0          0          0          NO
S-I-010          0          0          0          NO
S-A-240          0          0          0          NO
S-A-230          0          0          0          NO
S-A-220          0          0          0          NO
S-H-040          0          0          0          NO
S-H-030          0          0          0          NO
S-H-020          0          0          0          NO
S-H-010          0          0          0          NO
S-A-210          0          0          0          NO
S-G-060          0          0          0          NO
S-G-050          0          0          0          NO
S-G-040          0          0          0          NO
S-G-070          0          0          0          NO
S-G-030          0          0          0          NO
S-G-020          0          0          0          NO
S-G-010          0          0          0          NO