;; SWMM5 .inp converted from XPSWMM .xp file
;; Generated by XPSWMM Card Reader
;; Source format: XP_CARD | Original title: TH10 & POLK ST.

[TITLE]
;;Project Title/Notes
TH10 & POLK ST.

[OPTIONS]
FLOW_UNITS           CFS
INFILTRATION         HORTON
FLOW_ROUTING         DYNWAVE
LINK_OFFSETS         DEPTH
MIN_SLOPE            0.0
ALLOW_PONDING        NO
SKIP_STEADY_STATE    NO
ROUTING_STEP         00:00:120
VARIABLE_STEP        0.75
INERTIAL_DAMPING     PARTIAL
NORMAL_FLOW_LIMITED  BOTH
MAX_TRIALS           50

[JUNCTIONS]
;;Name           Elev       MaxDepth   InitDepth  SurDepth   Aponded
;;-------------- ---------- ---------- ---------- ---------- ----------
90               912.50     0          0          0          0
22               899.40     0          0          0          0
28               903.25     0          0          0          0
30               900.35     0          0          0          0
9-10             905.90     0          0          0          0
141              910.10     0          0          0          0
143              910.10     0          0          0          0
145              906.50     0          0          0          0
147              903.20     0          0          0          0
149              905.90     0          0          0          0
151              905.90     0          0          0          0
153              902.85     0          0          0          0
155              907.80     0          0          0          0
157              911.60     0          0          0          0
inflow5          903.20     0          0          0          0
163              898.80     0          0          0          0
173              904.10     0          0          0          0
175              912.95     0          0          0          0
179              908.00     0          0          0          0
181              908.00     0          0          0          0
187              957.20     0          0          0          0
189              956.50     0          0          0          0

[STORAGE]
;;Name           Elev       MaxDepth   InitDepth  Shape      Curve/Params
;;-------------- ---------- ---------- ---------- ---------- ----------
17-5             909.42     -12.52     0          FUNCTIONAL 0 0          0
139              910.10     -12.80     0          FUNCTIONAL 0 0          0
out5             907.03     0          0          FUNCTIONAL 0 0          0
out5a            898.00     -6.00      0          FUNCTIONAL 0 0          0
170              910.00     0          0          FUNCTIONAL 0 0          0
172              904.00     0          0          FUNCTIONAL 0 0          0

[CONDUITS]
;;Name           From             To               Length     Roughness  InOffset   OutOffset  InitFlow   MaxFlow
;;-------------- ---------------- ---------------- ---------- ---------- ---------- ---------- ---------- ----------
SCHOOL           17-5             22               70.00      0.0240     892.82     892.67     0          0
JEFF             28               30               119.00     0.0120     891.95     891.80     0          0
Polk-            139              141              82.00      0.0240     893.17     892.97     0          0
144              141              143              150.00     0          894.70     893.20     0          0
146              143              145              115.00     0          894.70     894.70     0          0
Tyler-           145              147              71.00      0.0120     893.05     893.05     0          0
150              147              149              290.00     0          894.60     893.00     0          0
152              149              151              115.00     0          894.60     894.60     0          0
Van              151              153              71.00      0.0120     892.78     892.57     0          0
156              153              155              480.00     0          893.90     893.90     0          0
158              155              157              250.00     0          895.00     895.00     0          0
161              157              17-5             325.00     0          895.00     892.82     0          0
17=5             inflow5          163              105.00     0.0240     889.80     889.33     0          0
166              163              out5             10.00      0.0140     889.80     889.80     0          0
17=5a            163              out5a            574.00     0.0140     889.15     888.45     0          0
ClvPrkw          170              90               109.00     0.0120     892.96     892.78     0          0
99th             172              173              65.00      0.0120     900.75     900.21     0          0
34.3             173              175              125.00     0          900.21     895.80     0          0
Pierce           179              181              74.00      0.0140     895.50     895.50     0          0
97th             187              189              88.00      0.0120     895.20     894.50     0          0
34               175              179              260.00     0          895.80     895.50     0          0
206              181              187              785.00     0          895.80     895.20     0          0
207              189              170              2260.00    0          894.50     893.20     0          0
208              90               139              1500.00    0          894.20     893.17     0          0
209              22               28               815.00     0          892.80     891.95     0          0
210              30               9-10             1540.00    0          891.95     890.40     0          0
211              9-10             inflow5          800.00     0          890.40     889.80     0          0

[XSECTIONS]
;;Link           Shape        Geom1      Geom2      Geom3      Geom4      Barrels
;;-------------- ------------ ---------- ---------- ---------- ---------- ----------
SCHOOL           CIRCULAR     4.00       0          0          0          1
JEFF             CUSTOM       3.00       0          0          0          1
Polk-            CIRCULAR     4.00       0          0          0          1
144              IRREGULAR    0          0          0          0          1
146              IRREGULAR    0          0          0          0          1
Tyler-           CUSTOM       3.75       0          0          0          1
150              IRREGULAR    0          0          0          0          1
152              IRREGULAR    0          0          0          0          1
Van              CUSTOM       3.75       0          0          0          1
156              IRREGULAR    0          0          0          0          1
158              IRREGULAR    0          0          0          0          1
161              IRREGULAR    0          0          0          0          1
17=5             CUSTOM       3.00       0          0          0          1
166              TRAPEZOIDAL  9.00       5.00       0          0          1
17=5a            CUSTOM       2.67       0          0          0          2
ClvPrkw          CUSTOM       0          0          0          0          2
99th             CIRCULAR     1.50       0          0          0          1
34.3             IRREGULAR    0          0          0          0          1
Pierce           CUSTOM       0          0          0          0          1
97th             HORSESHOE    62.00      0          0          0          2
34               IRREGULAR    0          0          0          0          1
206              IRREGULAR    0          0          0          0          1
207              IRREGULAR    0          0          0          0          1
208              IRREGULAR    0          0          0          0          1
209              IRREGULAR    0          0          0          0          1
210              IRREGULAR    0          0          0          0          1
211              IRREGULAR    0          0          0          0          1

[LOSSES]
;;Link           Inlet      Outlet     Average    Flap Gate
;;-------------- ---------- ---------- ---------- ----------
SCHOOL           0          0          0          NO
JEFF             0          0          0          NO
Polk-            0          0          0          NO
144              0          0          0          NO
146              0          0          0          NO
Tyler-           0          0          0          NO
150              0          0          0          NO
152              0          0          0          NO
Van              0          0          0          NO
156              0          0          0          NO
158              0          0          0          NO
161              0          0          0          NO
17=5             0          0          0          NO
166              0          0          0          NO
17=5a            0          0          0          NO
ClvPrkw          0          0          0          NO
99th             0          0          0          NO
34.3             0          0          0          NO
Pierce           0          0          0          NO
97th             0          0          0          NO
34               0          0          0          NO
206              0          0          0          NO
207              0          0          0          NO
208              0          0          0          NO
209              0          0          0          NO
210              0          0          0          NO
211              0          0          0          NO

[COORDINATES]
;;Node           X-Coord            Y-Coord
;;-------------- ------------------ ------------------
17-5             -28.88             26.78             
90               -168.25            131.54            
22               21.01              -40.28            
28               74.02              14.95             
30               102.04             95.74             
9-10             124.65             177.63            
139              -123.96            72.27             
141              -88.62             90.59             
143              -90.23             151.51            
145              -64.16             202.03            
147              -27.45             223.08            
149              16.01              234.97            
151              59.57              203.88            
153              22.54              166.84            
155              -4.59              127.00            
157              -26.90             75.62             
inflow5          146.96             225.71            
163              194.43             191.55            
out5             246.68             137.79            
out5a            239.29             212.30            
170              -226.27            171.85            
172              -377.52            239.67            
173              -400.06            170.60            
175              -416.73            112.09            
179              -379.48            60.89             
181              -328.51            49.52             
187              -286.37            81.21             
189              -268.73            143.78            

[MAP]
DIMENSIONS -416.73 -40.28 246.68 239.67
Units      None

[REPORT]
INPUT            YES
SUBCATCHMENTS    ALL
NODES            ALL
LINKS            ALL



