;; SWMM5 .inp converted from XPSWMM .xp file
;; Generated by XPSWMM Card Reader
;; Source format: XP_CARD | Original title: BIRMINGHAM CSO AREA

[TITLE]
;;Project Title/Notes
BIRMINGHAM CSO AREA

[OPTIONS]
FLOW_UNITS           CFS
INFILTRATION         HORTON
FLOW_ROUTING         DYNWAVE
LINK_OFFSETS         DEPTH
MIN_SLOPE            0.0
ALLOW_PONDING        NO
SKIP_STEADY_STATE    NO
ROUTING_STEP         00:00:10
VARIABLE_STEP        0.75
INERTIAL_DAMPING     NONE
NORMAL_FLOW_LIMITED  BOTH
MAX_TRIALS           50

[JUNCTIONS]
;;Name           Elev       MaxDepth   InitDepth  SurDepth   Aponded
;;-------------- ---------- ---------- ---------- ---------- ----------
6420             720.00     0          0          0          0
6421             720.00     0          0          0          0
6422             730.00     0          0          0          0
6423             724.00     0          0          0          0
6436             720.00     0          0          0          0
6437             730.00     0          0          0          0
6433             744.00     0          0          0          0
6434             732.00     0          0          0          0
6435             725.00     0          0          0          0
6441             718.00     0          0          0          0
6443             727.00     0          0          0          0
6444             735.00     0          0          0          0
6445             738.00     0          0          0          0
6446             748.00     0          0          0          0
6447             745.00     0          0          0          0
6448             756.00     0          0          0          0
6449             747.00     0          0          0          0
6450             756.00     0          0          0          0
6451             732.00     0          0          0          0
6454             739.00     0          0          0          0
6455             735.00     0          0          0          0
6456             759.00     0          0          0          0
6457             770.00     0          0          0          0
6458             770.00     0          0          0          0
6335             770.00     0          0          0          0
6334             770.00     0          0          0          0
6332             760.00     0          0          0          0
6331             760.00     0          0          0          0
OW0              720.00     0          0          0          0
DUMMY1           0          0          0          0          0
DUMMY2           0          0          0          0          0
DUMMY3           0          0          0          0          0
DUMMY4           0          0          0          0          0
DUMMY5           0          0          0          0          0
DUMMY6           0          0          0          0          0
DUMMY7           0          0          0          0          0
DUMMY8           0          0          0          0          0
DUMMY9           0          0          0          0          0
DUMMY10          0          0          0          0          0
DUMMY11          0          0          0          0          0
DUMMY12          0          0          0          0          0
DUMMY13          0          0          0          0          0
DUMMY14          0          0          0          0          0
DUMMY15          0          0          0          0          0
DUMMY16          0          0          0          0          0
DUMMY17          0          0          0          0          0
DUMMY18          0          0          0          0          0
DUMMY19          0          0          0          0          0
DUMMY20          0          0          0          0          0
DUMMY21          0          0          0          0          0
DUMMY22          0          0          0          0          0
DUMMY23          0          0          0          0          0
DUMMY24          0          0          0          0          0
DUMMY25          0          0          0          0          0
DUMMY26          0          0          0          0          0

[STORAGE]
;;Name           Elev       MaxDepth   InitDepth  Shape      Curve/Params
;;-------------- ---------- ---------- ---------- ---------- ----------
6440             720.00     0          0          FUNCTIONAL 500.00 0          0
6439             720.00     0          0          FUNCTIONAL 42415.00 0          0
6432             718.00     0          0          FUNCTIONAL 500.00 0          0
6442             725.00     0          0          FUNCTIONAL 500.00 0          0
6453             731.00     0          0          FUNCTIONAL 500.00 0          0

[CONDUITS]
;;Name           From             To               Length     Roughness  InOffset   OutOffset  InitFlow   MaxFlow
;;-------------- ---------------- ---------------- ---------- ---------- ---------- ---------- ---------- ----------
16440            6440             6439             300.00     0.0130     700.10     700.00     0          0
16420            6420             6432             185.00     0.0130     696.60     695.30     0          0
16421            6421             6420             380.00     0.0130     697.90     696.60     0          0
16422            6422             6421             1370.00    0.0130     709.80     697.90     0          0
16423            6423             6422             1700.00    0.0130     711.50     711.00     0          0
16432            6432             6440             440.00     0.0130     678.30     677.00     0          0
16436            6436             6432             230.00     0.0130     697.00     695.30     0          0
16437            6437             6436             210.00     0.0130     701.50     698.20     0          0
16433            6433             6432             680.00     0.0130     699.50     695.30     0          0
16434            6434             6433             1360.00    0.0130     715.90     699.50     0          0
16435            6435             6434             390.00     0.0130     716.00     715.90     0          0
16441            6441             6440             958.00     0.0130     681.90     677.00     0          0
16442            6442             6441             980.00     0.0130     687.00     681.90     0          0
16443            6443             6442             210.00     0.0130     709.00     703.30     0          0
16444            6444             6443             940.00     0.0130     712.20     709.00     0          0
16445            6445             6444             710.00     0.0130     715.80     712.20     0          0
16446            6446             6445             1570.00    0.0130     726.20     715.80     0          0
16447            6447             6446             740.00     0.0130     732.50     728.20     0          0
16448            6448             6447             505.00     0.0130     745.50     732.50     0          0
16449            6449             6446             590.00     0.0130     737.20     734.00     0          0
16450            6450             6442             710.00     0.0130     690.60     687.00     0          0
16451            6451             6450             645.00     0.0130     693.80     690.60     0          0
16453            6453             6451             1052.00    0.0130     699.00     693.80     0          0
16454            6454             6453             588.00     0.0130     714.00     711.00     0          0
16455            6455             6454             990.00     0.0130     717.50     715.00     0          0
16456            6456             6455             370.00     0.0130     723.00     719.30     0          0
16457            6457             6456             850.00     0.0130     754.50     723.00     0          0
16458            6458             6457             2200.00    0.0130     761.00     754.50     0          0
163351           6335             6449             2600.00    0.0130     760.09     737.20     0          0
163352           6335             6334             80.00      0.0130     758.83     758.82     0          0
16334            6334             6332             180.00     0.0130     758.82     751.98     0          0
163321           6332             6448             1800.00    0.0130     753.52     745.50     0          0
163322           6332             6331             70.00      0.0130     751.98     751.97     0          0
1                DUMMY1           6423             1200.00    0.0130     0          0          0          0
2                DUMMY2           6422             900.00     0.0130     0          0          0          0
3                DUMMY3           6421             3800.00    0.0130     0          0          0          0
4                DUMMY4           6420             2400.00    0.0130     0          0          0          0
5                DUMMY5           6437             5200.00    0.0130     0          0          0          0
6                DUMMY6           6433             6100.00    0.0130     0          0          0          0
7                DUMMY7           6434             1100.00    0.0130     0          0          0          0
8                DUMMY8           6435             2550.00    0.0130     0          0          0          0
9                DUMMY9           6440             1750.00    0.0130     0          0          0          0
10               DUMMY10          6441             850.00     0.0130     0          0          0          0
11               DUMMY11          6442             1300.00    0.0130     0          0          0          0
12               DUMMY12          6443             2900.00    0.0130     0          0          0          0
13               DUMMY13          6444             650.00     0.0130     0          0          0          0
14               DUMMY14          6445             2500.00    0.0130     0          0          0          0
15               DUMMY15          6446             1600.00    0.0130     0          0          0          0
16               DUMMY16          6448             1800.00    0.0130     0          0          0          0
17               DUMMY17          6449             2600.00    0.0130     0          0          0          0
18               DUMMY18          6450             750.00     0.0130     0          0          0          0
19               DUMMY19          6451             1000.00    0.0130     0          0          0          0
20               DUMMY20          6453             1200.00    0.0130     0          0          0          0
21               DUMMY21          6454             2100.00    0.0130     0          0          0          0
22               DUMMY22          6456             3700.00    0.0130     0          0          0          0
23               DUMMY23          6457             1800.00    0.0130     0          0          0          0
24               DUMMY24          6458             2200.00    0.0130     0          0          0          0
25               DUMMY25          6335             2000.00    0.0130     0          0          0          0
26               DUMMY26          6332             3000.00    0.0130     0          0          0          0

[WEIRS]
;;Name           From             To               Type       CrestHt    Qcoeff     Gated    EndCon   EndCoeff   Surcharge
;;-------------- ---------------- ---------------- ---------- ---------- ---------- -------- -------- ---------- ----------
weir1            6439             OW0              TRANSVERSE 714.00     1.840      NO       0        0          YES

[XSECTIONS]
;;Link           Shape        Geom1      Geom2      Geom3      Geom4      Barrels
;;-------------- ------------ ---------- ---------- ---------- ---------- ----------
16440            RECT_CLOSED  19.00      20.00      0          0          1
16420            CIRCULAR     5.50       0          0          0          1
16421            CIRCULAR     5.50       0          0          0          1
16422            CIRCULAR     5.50       0          0          0          1
16423            CIRCULAR     4.00       0          0          0          1
16432            CIRCULAR     11.00      0          0          0          1
16436            CIRCULAR     4.50       0          0          0          1
16437            CIRCULAR     3.00       0          0          0          1
16433            CIRCULAR     4.50       0          0          0          1
16434            CIRCULAR     4.50       0          0          0          1
16435            CIRCULAR     4.50       0          0          0          1
16441            CIRCULAR     11.00      0          0          0          1
16442            CIRCULAR     11.00      0          0          0          1
16443            CIRCULAR     6.00       0          0          0          1
16444            CIRCULAR     6.00       0          0          0          1
16445            CIRCULAR     6.00       0          0          0          1
16446            CIRCULAR     6.00       0          0          0          1
16447            CIRCULAR     4.50       0          0          0          1
16448            CIRCULAR     4.00       0          0          0          1
16449            CIRCULAR     5.00       0          0          0          1
16450            CIRCULAR     11.00      0          0          0          1
16451            CIRCULAR     11.00      0          0          0          1
16453            CIRCULAR     11.00      0          0          0          1
16454            CIRCULAR     6.00       0          0          0          1
16455            CIRCULAR     5.00       0          0          0          1
16456            CIRCULAR     5.00       0          0          0          1
16457            CIRCULAR     3.50       0          0          0          1
16458            CIRCULAR     3.50       0          0          0          1
163351           CIRCULAR     4.00       0          0          0          1
163352           RECT_CLOSED  1.22       1.70       0          0          1
16334            CIRCULAR     3.25       0          0          0          1
163321           CIRCULAR     4.00       0          0          0          1
163322           RECT_CLOSED  1.50       2.30       0          0          1
1                CIRCULAR     1.75       0          0          0          1
2                CIRCULAR     1.00       0          0          0          1
3                CIRCULAR     3.00       0          0          0          1
4                CIRCULAR     2.25       0          0          0          1
5                CIRCULAR     2.00       0          0          0          1
6                CIRCULAR     2.50       0          0          0          1
7                CIRCULAR     1.50       0          0          0          1
8                CIRCULAR     2.00       0          0          0          1
9                CIRCULAR     1.41       0          0          0          1
10               CIRCULAR     1.67       0          0          0          1
11               CIRCULAR     1.00       0          0          0          1
12               CIRCULAR     2.25       0          0          0          1
13               CIRCULAR     1.25       0          0          0          1
14               CIRCULAR     2.50       0          0          0          1
15               CIRCULAR     1.25       0          0          0          1
16               CIRCULAR     4.00       0          0          0          1
17               CIRCULAR     4.00       0          0          0          1
18               CIRCULAR     1.41       0          0          0          1
19               CIRCULAR     1.00       0          0          0          1
20               CIRCULAR     1.64       0          0          0          1
21               CIRCULAR     2.50       0          0          0          1
22               CIRCULAR     3.50       0          0          0          1
23               CIRCULAR     1.25       0          0          0          1
24               CIRCULAR     3.00       0          0          0          1
25               CIRCULAR     3.00       0          0          0          1
26               CIRCULAR     3.50       0          0          0          1
weir1            RECT_OPEN    0          500.00     0          0          

[LOSSES]
;;Link           Inlet      Outlet     Average    Flap Gate
;;-------------- ---------- ---------- ---------- ----------
16440            0          0          0          NO
16420            0          0          0          NO
16421            0          0          0          NO
16422            0          0          0          NO
16423            0          0          0          NO
16432            0          0          0          NO
16436            0          0          0          NO
16437            0          0          0          NO
16433            0          0          0          NO
16434            0          0          0          NO
16435            0          0          0          NO
16441            0          0          0          NO
16442            0          0          0          NO
16443            0          0          0          NO
16444            0          0          0          NO
16445            0          0          0          NO
16446            0          0          0          NO
16447            0          0          0          NO
16448            0          0          0          NO
16449            0          0          0          NO
16450            0          0          0          NO
16451            0          0          0          NO
16453            0          0          0          NO
16454            0          0          0          NO
16455            0          0          0          NO
16456            0          0          0          NO
16457            0          0          0          NO
16458            0          0          0          NO
163351           0          0          0          NO
163352           0          0          0          NO
16334            0          0          0          NO
163321           0          0          0          NO
163322           0          0          0          NO
1                0          0          0          NO
2                0          0          0          NO
3                0          0          0          NO
4                0          0          0          NO
5                0          0          0          NO
6                0          0          0          NO
7                0          0          0          NO
8                0          0          0          NO
9                0          0          0          NO
10               0          0          0          NO
11               0          0          0          NO
12               0          0          0          NO
13               0          0          0          NO
14               0          0          0          NO
15               0          0          0          NO
16               0          0          0          NO
17               0          0          0          NO
18               0          0          0          NO
19               0          0          0          NO
20               0          0          0          NO
21               0          0          0          NO
22               0          0          0          NO
23               0          0          0          NO
24               0          0          0          NO
25               0          0          0          NO
26               0          0          0          NO

[INFLOWS]
;;Node           Constituent  Time Series      Type     Mfactor  Sfactor  Baseline Pattern
;;-------------- ------------ ---------------- -------- -------- -------- -------- --------
6332             FLOW         ""               FLOW     1.0      1.0      0.13
6331             FLOW         ""               FLOW     1.0      1.0      0.14

[COORDINATES]
;;Node           X-Coord            Y-Coord
;;-------------- ------------------ ------------------
6440             748.42             -236.97           
6439             816.03             -385.56           
6420             589.41             -177.33           
6432             647.50             -303.47           
6421             533.54             -222.23           
6422             484.22             -91.00            
6423             379.02             -54.16            
6436             379.17             -355.64           
6437             292.48             -382.52           
6433             505.30             -435.23           
6434             401.93             -447.10           
6435             319.56             -467.38           
6441             666.53             -81.96            
6442             672.95             66.26             
6443             599.44             113.03            
6444             508.48             140.70            
6445             402.05             96.59             
6446             119.20             104.93            
6447             117.67             370.15            
6448             0.73               367.87            
6449             170.92             -271.56           
6450             580.54             -51.49            
6451             532.73             -48.51            
6453             544.14             -202.72           
6454             524.82             -207.90           
6455             362.34             -259.76           
6456             327.90             -300.99           
6457             480.58             -247.22           
6458             475.40             -266.54           
6335             70.42              -384.23           
6334             67.38              -180.81           
6332             4.52               88.55             
6331             186.09             -218.86           
OW0              689.68             -512.74           
DUMMY1           365.30             -104.81           
DUMMY2           475.17             -5.53             
DUMMY3           396.46             -154.14           
DUMMY4           625.28             -150.46           
DUMMY5           222.22             -410.84           
DUMMY6           500.58             -490.51           
DUMMY7           392.09             -499.83           
DUMMY8           283.14             -516.01           
DUMMY9           751.30             -206.74           
DUMMY10          713.37             -64.60            
DUMMY11          675.49             151.65            
DUMMY12          606.63             262.92            
DUMMY13          480.38             206.57            
DUMMY14          405.18             206.41            
DUMMY15          65.60              40.25             
DUMMY16          8.01               475.74            
DUMMY17          292.96             -273.60           
DUMMY18          589.50             -88.45            
DUMMY19          549.92             -190.32           
DUMMY20          526.01             -194.27           
DUMMY21          504.89             -206.15           
DUMMY22          472.73             -236.02           
DUMMY23          464.20             -258.69           
DUMMY24          470.23             -285.86           
DUMMY25          87.48              -501.37           
DUMMY26          -20.44             88.48             

[MAP]
DIMENSIONS -20.44 -516.01 816.03 475.74
Units      None

[REPORT]
INPUT            YES
SUBCATCHMENTS    ALL
NODES            ALL
LINKS            ALL



