;; SWMM5 .inp converted from XPSWMM .xp file
;; Generated by XPSWMM Card Reader
;; Source format: XP_CARD | Original title: (none)

[TITLE]
;;Project Title/Notes
Converted from XPSWMM .xp file

[OPTIONS]
FLOW_UNITS           CFS
INFILTRATION         HORTON
FLOW_ROUTING         DYNWAVE
LINK_OFFSETS         DEPTH
MIN_SLOPE            0.0
ALLOW_PONDING        NO
SKIP_STEADY_STATE    NO
ROUTING_STEP         00:00:05
VARIABLE_STEP        0.75
INERTIAL_DAMPING     PARTIAL
NORMAL_FLOW_LIMITED  BOTH
MAX_TRIALS           500
HEAD_TOLERANCE       0.0033

[JUNCTIONS]
;;Name           Elev       MaxDepth   InitDepth  SurDepth   Aponded
;;-------------- ---------- ---------- ---------- ---------- ----------
A3560-S          507.82     0          0          0          0
A3000            501.41     0          0          0          0
A2440-M          460.19     0          0          0          0
A2251            456.32     0          0          0          0
A2229            432.45     0          0          0          0
A2020-M          433.90     0          0          0          0
A1825            415.03     0          0          0          0
A1815            431.49     0          0          0          0
A1193            433.58     0          0          0          0
A1184            428.62     0          0          0          0
A1130            421.91     0          0          0          0
A994             421.91     0          0          0          0
A923             414.31     0          0          0          0
A877             436.89     0          0          0          0
A410-S           429.80     0          0          0          0
1090             428.65     0          0          0          0
620-S            425.00     0          0          0          0
0                420.19     0          0          0          0
1190             429.42     0          0          0          0
B730             465.66     0          0          0          0
B300             418.84     0          0          0          0
B1510            471.75     0          0          0          0
B2790            481.58     0          0          0          0
B2809            450.35     0          0          0          0
B3090-S          456.40     0          0          0          0
1576             432.42     0          0          0          0
1604             479.33     0          0          0          0
2200-S           479.00     0          0          0          0
2550             507.85     0          0          0          0
2900-S           508.00     0          0          0          0
3150             508.03     0          0          0          0
C970-S           484.80     0          0          0          0
5140-S           453.30     0          0          0          0
5790             495.18     0          0          0          0
5902             455.16     0          0          0          0
D550-S           497.20     0          0          0          0
D1094            505.40     0          0          0          0
D1126            546.21     0          0          0          0
D1-0             553.59     0          0          0          0
D1970            549.16     0          0          0          0
D1-550-S         556.00     0          0          0          0
D1-1550          566.00     0          0          0          0
D1-2550-S        529.60     0          0          0          0
D1-3365          555.00     0          0          0          0
D1-4180-S        545.10     0          0          0          0
D2640-S          551.50     0          0          0          0
D2786            555.02     0          0          0          0
D2797            424.60     0          0          0          0
D2887-M          420.69     0          0          0          0
D2977            429.87     0          0          0          0
D2995            429.87     0          0          0          0
D3330-M          429.65     0          0          0          0
D3665            433.78     0          0          0          0
D3715            526.73     0          0          0          0
D4170-S          530.30     0          0          0          0
D4660            541.60     0          0          0          0
D5150-S          506.50     0          0          0          0
5958             428.42     0          0          0          0
6080-M           428.05     0          0          0          0
6200             432.58     0          0          0          0
6261             428.97     0          0          0          0
6780-M           442.37     0          0          0          0
7228             442.63     0          0          0          0
7251             501.82     0          0          0          0
7790-S           501.70     0          0          0          0
9083             507.90     0          0          0          0
9098             511.92     0          0          0          0
9670-S           508.10     0          0          0          0
10180            509.05     0          0          0          0
10690-S          433.10     0          0          0          0
11218            435.82     0          0          0          0
11230            482.83     0          0          0          0
11830-S          484.70     0          0          0          0
12890            484.44     0          0          0          0
E410-S           452.50     0          0          0          0
E610             456.67     0          0          0          0
E818             467.77     0          0          0          0
E1-168           454.11     0          0          0          0
E1-700-S         480.10     0          0          0          0
E1100-S          471.40     0          0          0          0
E1373            477.14     0          0          0          0
E1387            477.14     0          0          0          0
E1720-S          479.60     0          0          0          0
E1905            484.40     0          0          0          0
13480-S          465.20     0          0          0          0
13612            467.78     0          0          0          0
13623            503.07     0          0          0          0
14010            502.88     0          0          0          0
14580-S          502.60     0          0          0          0
15030            504.95     0          0          0          0
15480-S          479.30     0          0          0          0
15995            482.65     0          0          0          0
16510-S          455.80     0          0          0          0
16715            457.41     0          0          0          0
16945            491.42     0          0          0          0
17430            492.96     0          0          0          0
17915            495.40     0          0          0          0
17945            497.31     0          0          0          0
18430-S          499.10     0          0          0          0
19130-S          487.50     0          0          0          0
20430-S          481.00     0          0          0          0
20950            513.66     0          0          0          0
21870-S          518.00     0          0          0          0
F82              460.00     0          0          0          0
F117             474.48     0          0          0          0
F560             474.87     0          0          0          0
F680             477.39     0          0          0          0
F850-S           488.50     0          0          0          0
22410-M          520.40     0          0          0          0
22630            521.06     0          0          0          0
G100-M           455.47     0          0          0          0
G137             455.86     0          0          0          0
22779            521.51     0          0          0          0
22821            510.49     0          0          0          0
G143             489.61     0          0          0          0
G220-S           496.30     0          0          0          0
G387             492.12     0          0          0          0
G612             475.17     0          0          0          0
G672-S           475.77     0          0          0          0
H260             513.66     0          0          0          0
H319             514.38     0          0          0          0
H1840-S          525.60     0          0          0          0
H2077            526.09     0          0          0          0
H2570            508.39     0          0          0          0
3460-S           528.50     0          0          0          0
H5160-S          534.60     0          0          0          0
H5770            541.30     0          0          0          0
H6787            553.53     0          0          0          0
H6812            555.33     0          0          0          0
H6970-S          558.00     0          0          0          0
H7074            559.38     0          0          0          0
H7163            563.12     0          0          0          0
H7930-S          560.90     0          0          0          0
H8440            570.45     0          0          0          0
H8950-S          576.70     0          0          0          0
H7630            567.65     0          0          0          0
H9270            588.20     0          0          0          0
H9428            584.96     0          0          0          0
H9511            575.60     0          0          0          0
H9720-S          577.20     0          0          0          0
23090-M          474.49     0          0          0          0
23546            474.49     0          0          0          0
23973            519.70     0          0          0          0
23960-S          520.60     0          0          0          0
24305            523.00     0          0          0          0
24650-S          506.90     0          0          0          0
24935            509.88     0          0          0          0
24944            495.28     0          0          0          0
25080-M          496.70     0          0          0          0
25150            500.59     0          0          0          0
25440-M          503.97     0          0          0          0
I100             482.94     0          0          0          0
I120             483.09     0          0          0          0
I280-M           487.37     0          0          0          0
I393             487.34     0          0          0          0
I407             555.06     0          0          0          0
I660-S           557.50     0          0          0          0
I1397            567.60     0          0          0          0
I1402            533.50     0          0          0          0
I1600-S          533.70     0          0          0          0
I1671            534.61     0          0          0          0
I1730            544.56     0          0          0          0
I1750            545.25     0          0          0          0
I1-120-S         519.20     0          0          0          0
I2520-S          554.90     0          0          0          0
I3386            556.69     0          0          0          0
I4014            554.26     0          0          0          0
I4324-S          564.70     0          0          0          0
I1-221           521.16     0          0          0          0
I1-240           521.26     0          0          0          0
I1-275           520.21     0          0          0          0
I1-286           521.21     0          0          0          0
I1-387           523.00     0          0          0          0
25780            535.60     0          0          0          0
26120-S          537.90     0          0          0          0
26600            544.40     0          0          0          0
27080-S          548.90     0          0          0          0
27490-S          552.70     0          0          0          0
27900-S          544.80     0          0          0          0
28485            550.70     0          0          0          0
29070-S          542.80     0          0          0          0
29760            545.40     0          0          0          0
29910-S          546.60     0          0          0          0
30528            553.80     0          0          0          0
30592            546.01     0          0          0          0
31260-S          553.10     0          0          0          0
31924            566.52     0          0          0          0
32520            566.52     0          0          0          0
33330            572.96     0          0          0          0
J263             593.78     0          0          0          0
33460-M          570.51     0          0          0          0
33568            570.39     0          0          0          0
33773            565.58     0          0          0          0
33800-S          560.80     0          0          0          0
K-0              564.35     0          0          0          0
J2313            593.78     0          0          0          0
J2420-M          585.64     0          0          0          0
34220            564.55     0          0          0          0
35330-M          575.22     0          0          0          0
35433            577.14     0          0          0          0
35688            587.13     0          0          0          0
35955            601.61     0          0          0          0
36260-M          606.55     0          0          0          0
36774            606.72     0          0          0          0
36945            586.23     0          0          0          0
37070-S          592.80     0          0          0          0
K409             569.45     0          0          0          0
K471             570.43     0          0          0          0
K700-S           571.00     0          0          0          0
K1250            576.10     0          0          0          0
K1800.S          568.10     0          0          0          0
K2540            585.16     0          0          0          0
K2660            585.16     0          0          0          0
K2840-S          581.20     0          0          0          0
K4390            596.86     0          0          0          0
K4569            593.94     0          0          0          0
K4520-M          594.72     0          0          0          0
527              438.00     0          0          0          0
535              470.00     0          0          0          0
K4480=OF         593.66     0          0          0          0
36860=OF         583.88     0          0          0          0
35560=OF         572.42     0          0          0          0
K440=OF          560.38     0          0          0          0
J1290=OF         593.78     0          0          0          0
30560=OF         531.54     0          0          0          0
I1700=OF         498.98     0          0          0          0
I1-230=OF        497.06     0          0          0          0
I1-281=OF        495.59     0          0          0          0
I1400=OF         481.08     0          0          0          0
I400=OF          474.97     0          0          0          0
I110=OF          474.08     0          0          0          0
24940=OF         469.60     0          0          0          0
H7120=OF         532.21     0          0          0          0
22800=OF         466.68     0          0          0          0
G500=OF          465.34     0          0          0          0
H6800=OF         536.20     0          0          0          0
F100=OF          460.00     0          0          0          0
E1-84=OF         451.78     0          0          0          0
E1380=OF         477.14     0          0          0          0
D3690=OF         430.87     0          0          0          0
D2986=OF         429.87     0          0          0          0
D2791=OF         424.60     0          0          0          0
B2800=OF         437.79     0          0          0          0
A2240=OF         420.72     0          0          0          0
A1200=OF         428.62     0          0          0          0
B515=OF          418.84     0          0          0          0
9148             511.95     0          0          0          0
11280            482.83     0          0          0          0
13673            503.07     0          0          0          0
24994            495.80     0          0          0          0
H6862            555.87     0          0          0          0
I4450/5450       580.70     0          0          0          0

[STORAGE]
;;Name           Elev       MaxDepth   InitDepth  Shape      Curve/Params
;;-------------- ---------- ---------- ---------- ---------- ----------
A3560            438.00     0          0          FUNCTIONAL 0 0          0
POND-E           470.00     0          0          FUNCTIONAL 0 0          0

[CONDUITS]
;;Name           From             To               Length     Roughness  InOffset   OutOffset  InitFlow   MaxFlow
;;-------------- ---------------- ---------------- ---------- ---------- ---------- ---------- ---------- ----------
S1901            A3560-S          A3000            560.00     0          414.22     407.81     0          0
M-501.           A3000            A2440-M          560.00     0          407.81     401.40     0          0
M-501            A2440-M          A2251            189.00     0          401.40     397.53     0          0
M-502.           A2229            A2020-M          209.00     0          397.15     398.60     0          0
M-502            A2020-M          A1825            195.00     0          398.60     398.59     0          0
Mason            A1815            A1193            622.00     0          398.59     393.32     0          0
Mason            A1184            A1130            54.00      0          393.32     391.15     0          0
Mason            A994             A923             117.00     0          391.15     390.89     0          0
S1903.           A877             A410-S           467.00     0          390.89     383.80     0          0
S1903            A410-S           1090             410.00     0          383.80     381.85     0          0
S1029.           1090             620-S            470.00     0          381.85     378.20     0          0
S1029            620-S            0                620.00     0          378.20     373.39     0          0
S1029..          1190             1090             100.00     0          382.62     381.85     0          0
S2002...         B2790            B1510            1280.00    0          421.78     408.74     0          0
S2002.           B1510            B730             780.00     0          408.74     400.94     0          0
S2001            B3090-S          B2809            281.00     0          428.30     422.25     0          0
S1703.           D1970            D1-0             50.00      0          401.76     401.59     0          0
S1703            D1-0             D1126            794.00     0          401.59     398.81     0          0
S1706            D1-550-S         D1-0             550.00     0          404.00     401.59     0          0
S1707.           D1094            D550-S           544.00     0          398.70     390.50     0          0
S1707            D550-S           5790             550.00     0          390.50     387.69     0          0
S1026.           5790             5140-S           650.00     0          387.69     386.10     0          0
S1026            5140-S           3150             1990.00    0          386.10     385.83     0          0
S1027.           3150             2900-S           250.00     0          385.83     385.50     0          0
S1027            2900-S           2550             350.00     0          385.80     385.65     0          0
S1028.           2550             2200-S           350.00     0          385.65     385.50     0          0
S1028            2200-S           1604             596.00     0          385.50     385.83     0          0
S1029...         1576             1190             386.00     0          385.62     382.62     0          0
D1110-L          D1110-C          D1110-R          32.00      0.0380     401.48     401.37     0          0
S1801            C970-S           3150             970.00     0          397.30     385.83     0          0
S1704            D1-4180-S        D1-3365          815.00     0          474.80     449.40     0          0
S1705.           D1-3365          D1-2550-S        815.00     0          449.40     424.00     0          0
S1705            D1-2550-S        D1-1550          1000.00    0          424.00     414.00     0          0
S1706.           D1-1550          D1-550-S         1000.00    0          414.00     404.00     0          0
S1701            D5150-S          D4660            490.00     0          443.30     432.00     0          0
S1702.           D4660            D4170-S          490.00     0          432.00     420.70     0          0
S1702            D4170-S          D3715            455.00     0          420.70     417.13     0          0
M-1000.          D3665            D3330-M          335.00     0          416.74     412.61     0          0
M-1000           D3330-M          D2995            335.00     0          412.61     409.98     0          0
M-1001.          D2977            D2887-M          90.00      0          409.98     408.52     0          0
M-1001           D2887-M          D2797            90.00      0          408.52     407.62     0          0
S1703...         D2786            D2640-S          146.00     0          407.62     404.10     0          0
S1703..          D2640-S          D1970            670.00     0          404.10     401.76     0          0
11230-L          11230-C          11230-R          25.00      0.0380     400.10     400.02     0          0
S1022.           12890            11830-S          1060.00    0          397.84     398.10     0          0
S1022            11830-S          11280            537.00     0          398.10     396.39     0          0
S1023.           11218            10690-S          528.00     0          396.15     394.10     0          0
S1023            10690-S          10180            510.00     0          394.10     393.15     0          0
S1024.           10180            9670-S           510.00     0          393.15     392.20     0          0
S1024            9670-S           9148             522.00     0          392.20     395.66     0          0
S1025.           9083             7790-S           1293.00    0          395.90     389.70     0          0
S1025            7790-S           7251             539.00     0          389.70     389.82     0          0
7240-L           7240-C           7240=OF          22.50      0.0200     390.82     390.56     0          0
M-9.             7228             6780-M           448.00     0          389.56     389.30     0          0
M-9              6780-M           6261             519.00     0          389.30     390.19     0          0
M-10.            6200             6080-M           120.00     0          389.58     388.40     0          0
M-10             6080-M           5958             122.00     0          388.40     388.77     0          0
5930left         5930center       5930right        56.50      0.0140     390.17     389.36     0          0
S1026..          5902             5790             112.00     0          387.96     387.69     0          0
S1602.           E1905            E1720-S          185.00     0          427.80     423.00     0          0
S1602            E1720-S          E1387            333.00     0          423.00     417.12     0          0
S1603.           E1373            E1100-S          273.00     0          416.99     411.80     0          0
S1603            E1100-S          E818             282.00     0          411.80     408.17     0          0
S1601            E1-700-S         E1-168           532.00     0          435.70     409.71     0          0
S1604.           E610             E410-S           200.00     0          405.17     401.00     0          0
S1604            E410-S           12890            410.00     0          401.00     397.84     0          0
S1020.           14580-S          14010            570.00     0          399.80     398.76     0          0
S1020            14010            13673            337.00     0          398.76     398.15     0          0
S1021.           13612            13480-S          132.00     0          398.04     397.70     0          0
S1021            13480-S          12890            590.00     0          397.70     397.84     0          0
S1017            17430            16945            485.00     0          413.96     412.42     0          0
S1018.           16715            16510-S          205.00     0          412.81     411.20     0          0
S1018            16510-S          15995            515.00     0          411.20     407.85     0          0
S1019.           15995            15480-S          515.00     0          407.85     404.50     0          0
S1019            15480-S          15030            450.00     0          404.50     402.15     0          0
S1020..          15030            14580-S          450.00     0          402.15     399.80     0          0
S1017.           17915            17430            485.00     0          416.40     413.96     0          0
S1013            21870-S          20950            920.00     0          431.70     427.36     0          0
S1403            F850-S           F680             170.00     0          444.30     443.23     0          0
S1402.           F560             F117             443.00     0          438.97     436.18     0          0
S1402..          F82              20950            82.00      0          435.96     435.45     0          0
M-402.           G137             G100-M           37.00      0          439.60     439.21     0          0
M-402            G100-M           22630            100.00     0          439.21     438.16     0          0
S1501.           G387             G220-S           167.00     0          442.22     440.47     0          0
S1501            G220-S           G143             77.00      0          440.47     439.66     0          0
S1502            G672-S           G612             60.00      0          446.97     446.37     0          0
M-401.           H260             22821            260.00     0          439.66     436.49     0          0
S1208.           H5160-S          3460-S           1700.00    0          486.60     472.20     0          0
S1208            3460-S           H2570            890.00     0          472.20     457.78     0          0
S1206.           H6787            H5770            1017.00    0          505.53     493.30     0          0
S1207.           H5770            H5160-S          610.00     0          493.30     486.60     0          0
S1205.           H7074            H6970-S          104.00     0          509.58     508.20     0          0
S1205            H6970-S          H6862            108.00     0          508.20     506.07     0          0
S1202..          H9428            H9270            158.00     0          537.76     535.03     0          0
S1202.           H9270            H8950-S          320.00     0          535.03     529.50     0          0
S1202            H8950-S          H8440            510.00     0          529.50     523.25     0          0
S1203.           H8440            H7930-S          510.00     0          523.25     517.00     0          0
S1203            H7930-S          H7630            300.00     0          517.00     514.75     0          0
S1204.           H7630            H7163            467.00     0          514.75     510.22     0          0
S1201            H9720-S          H9511            209.00     0          541.00     539.40     0          0
S1012.           24305            23960-S          345.00     0          447.60     445.20     0          0
M-6              23090-M          22821            269.00     0          438.23     436.24     0          0
S1011.           24935            24650-S          285.00     0          452.98     450.00     0          0
S1011            24650-S          24305            345.00     0          450.00     447.60     0          0
M-301            I100             25150            100.00     0          455.99     455.32     0          0
M-5.             25150            25080-M          70.00      0          455.32     454.50     0          0
M-5              25080-M          24994            86.00      0          454.50     453.60     0          0
M-4              25440-M          25150            290.00     0          458.70     455.32     0          0
S1305            I660-S           I407             253.00     0          462.60     460.16     0          0
M-4a.            I393             I280-M           113.00     0          460.39     458.20     0          0
M-4a             I280-M           I120             160.00     0          458.20     456.14     0          0
S1304            I1600-S          I1402            198.00     0          472.90     472.70     0          0
S1305.           I1397            I660-S           737.00     0          472.70     462.60     0          0
S1304.           I1671            I1600-S          100.00     0          473.81     472.90     0          0
S1301            I4324-S          I4014            310.00     0          499.26     493.56     0          0
S1302..          I3386            I2520-S          866.00     0          488.39     486.60     0          0
S1302.           I2520-S          I1750            770.00     0          486.60     476.95     0          0
S1302            I1750            I1730            20.00      0          476.95     476.26     0          0
S1303            I1-120-S         I1750            120.00     0          478.90     476.95     0          0