;; SWMM5 .inp converted from XPSWMM .xp file
;; Generated by XPSWMM Card Reader
;; Source format: XP_CARD | Original title: City of Camden and Gloucester City Sewer System Model

[TITLE]
;;Project Title/Notes
City of Camden and Gloucester City Sewer System Model

[OPTIONS]
FLOW_UNITS           CFS
INFILTRATION         HORTON
FLOW_ROUTING         DYNWAVE
LINK_OFFSETS         DEPTH
MIN_SLOPE            0.0
ALLOW_PONDING        NO
SKIP_STEADY_STATE    NO
ROUTING_STEP         00:00:30
VARIABLE_STEP        0.75
INERTIAL_DAMPING     PARTIAL
NORMAL_FLOW_LIMITED  BOTH
MAX_TRIALS           50
HEAD_TOLERANCE       0.0033

[JUNCTIONS]
;;Name           Elev       MaxDepth   InitDepth  SurDepth   Aponded
;;-------------- ---------- ---------- ---------- ---------- ----------
OF-WPCF          3.69       0          0          0          0
GC-COU-JNC       12.90      0          0          0          0
IC-WPCF          10.25      0          0          0          0
GT-County        10.75      0          0          0          0
GT-Camden        10.75      0          0          0          0
C2-FE-IC50       6.50       0          0          0          0
OF-C3            3.69       0          0          0          0
C2-FE-IC40       6.39       0          0          0          0
C2-IC            6.55       0          0          0          0
C2-JE-009        6.55       0          0          0          0
OF-C2            7.95       0          0          0          0
C2-JE-055        12.93      0          0          0          0
C3-08-065        7.58       0          0          0          0
C3-08-094        8.58       0          0          0          0
C3-10-124        6.94       0          0          0          0
OF-C1            9.00       0          0          0          0
OF-C5            5.19       0          0          0          0
IC-C5            5.51       0          0          0          0
OF-C6            6.83       0          0          0          0
C6-IC            6.23       0          0          0          0
OF-C7            6.72       0          0          0          0
C7-IC            5.67       0          0          0          0
OF-C8            10.04      0          0          0          0
C8-IC            6.32       0          0          0          0
OF-C9            3.67       0          0          0          0
OF1-C9           8.61       0          0          0          0
OF-C10           4.96       0          0          0          0
C10-AR-008       4.90       0          0          0          0
AR-IC            9.01       0          0          0          0
C11-IC           5.50       0          0          0          0
OF-C11           7.13       0          0          0          0
C12-IC           6.26       0          0          0          0
OF-C12           6.54       0          0          0          0
C13-IC           11.13      0          0          0          0
OF-C13           3.02       0          0          0          0
C14-IC           9.65       0          0          0          0
OF-C14           8.82       0          0          0          0
C3-08-164        27.30      0          0          0          0
C3-08-134        18.90      0          0          0          0
C3-08-091        9.35       0          0          0          0
C3-EV-075        10.00      0          0          0          0
C13-BE-I25       7.45       0          0          0          0
C12-DE-I70       6.15       0          0          0          0
C7-02-I10        5.96       0          0          0          0
C16-IC           18.00      0          0          0          0
OF-C16           18.36      0          0          0          0
OF-C15           2.41       0          0          0          0
C15-ST-010       17.66      0          0          0          0
C17-IC           5.61       0          0          0          0
OF-C17           7.53       0          0          0          0
OF-C28           2.93       0          0          0          0
OF-C19           12.74      0          0          0          0
OF-C27           10.00      0          0          0          0
PINE-IC          19.44      0          0          0          0
OF-C18           7.39       0          0          0          0
OF-C22           6.18       0          0          0          0
PI-SP-IC75       25.00      0          0          0          0
C17-ME-I10       11.00      0          0          0          0
C16-BR-I50       6.00       0          0          0          0
C16-BR-I45       7.00       0          0          0          0
C16-BR-I30       17.00      0          0          0          0
ST-PE-I40        25.00      0          0          0          0
ST-10-I30        200.00     0          0          0          0
ST-10-I20        200.00     0          0          0          0
C15-IC           15.60      0          0          0          0
C15-ST-I20       15.00      0          0          0          0
C15-ST-I30       10.00      0          0          0          0
ST-ST-F50        200.00     0          0          0          0
FE-FE-F10        200.00     0          0          0          0
FE-FE-F20        9.00       0          0          0          0
FE-FE-F60        6.00       0          0          0          0
OF-C22A          5.26       0          0          0          0
C22A-RI050       15.69      0          0          0          0
C22A-IC          9.50       0          0          0          0
C19-PI-010       200.00     0          0          0          0
BA-BA-F20        200.00     0          0          0          0
OF-C23           5.00       0          0          0          0
C23-HA-I20       6.00       0          0          0          0
OF-C24           6.88       0          0          0          0
C24-27-010       13.00      0          0          0          0
C32-IC           10.00      0          0          0          0
OF-G2            5.22       0          0          0          0
OF-G1            5.15       0          0          0          0
OF-G3            6.67       0          0          0          0
OF-G4            7.49       0          0          0          0
OF-G5            10.38      0          0          0          0
OF-G6            10.95      0          0          0          0
OF-G7            7.02       0          0          0          0
27TH-IC          10.00      0          0          0          0
C22A-RI060       15.70      0          0          0          0
C23-22-050       21.15      0          0          0          0
C23-20-050       17.02      0          0          0          0
C23-19-050       15.69      0          0          0          0
C23A-PR060       8.04       0          0          0          0
C23-PR-060       9.01       0          0          0          0
C23-PR-045       12.00      0          0          0          0
C22-BA-130       20.33      0          0          0          0
C11-PE-030       8.89       0          0          0          0
C9-BE-010        6.32       0          0          0          0
G6-ES-010        5.00       0          0          0          0
G4-MA-040        10.00      0          0          0          0
G4-MA-070        10.00      0          0          0          0
G6-ES-060        15.00      0          0          0          0
C2-FE-220        26.00      0          0          0          0
C2-FE-180        24.00      0          0          0          0
C2-FE-110        11.87      0          0          0          0
C19-PA-080       12.00      0          0          0          0
C19-PA-030       13.50      0          0          0          0
C19-PA-051       11.04      0          0          0          0
C19-PA-060       10.58      0          0          0          0
C1-SY-060        6.78       0          0          0          0
C28A-ES030       4.66       0          0          0          0
C28A-RG          11.44      0          0          0          0
C28A-OF1         11.44      0          0          0          0
OF-C28A          7.11       0          0          0          0
C23A-TG          6.54       0          0          0          0
C23A-TG1         6.54       0          0          0          0
OF-C23A          6.54       0          0          0          0
CFE-OF           26.90      0          0          0          0
C27B-OF          23.95      0          0          0          0
C22-MA-130       19.54      0          0          0          0
CMT-OF           19.54      0          0          0          0
OF-THORN         6.24       0          0          0          0
CFA              12.35      0          0          0          0
OF-CFA           10.00      0          0          0          0
TH-TG1           6.24       0          0          0          0
OF-CME           8.33       0          0          0          0
CME-ME-030       8.33       0          0          0          0
G06-EL-030       18.75      0          0          0          0
G02-WA-I05       4.55       0          0          0          0
IC2-GL-CCM       206.00     0          0          0          0
GL-FM-END        219.95     0          0          0          0
GL-SI1           107.64     0          0          0          0
GL-SI2           107.64     0          0          0          0
BA-FM5           200.00     0          0          0          0
PI-PS            223.00     0          0          0          0
AR-JUNC          7.10       0          0          0          0
CFA-JUNC         13.85      0          0          0          0
BR-JUNC          13.50      0          0          0          0
COU-FA-030       8.40       0          0          0          0
COU-FA-080       10.00      0          0          0          0
COU-04-090       5.80       0          0          0          0
COU-BR-200       10.00      0          0          0          0
GL-RIV           6.43       0          0          0          0
FAIRVIEW         10.80      0          0          0          0
OF-C32           10.50      0          0          0          0
1309             0          0          0          0          0
GL-Dummy         11.00      0          0          0          0
C2-JE-019        6.55       0          0          0          0
1326             0          0          0          0          0
C28A-DUMMY       7.11       0          0          0          0
C32-DUMMY        12.43      0          0          0          0

[STORAGE]
;;Name           Elev       MaxDepth   InitDepth  Shape      Curve/Params
;;-------------- ---------- ---------- ---------- ---------- ----------
WPCF             203.69     -200.00    0          FUNCTIONAL 110000.00 0          0
PSWW-WPCF        9.00       0          0          FUNCTIONAL 500.00 0          0
C3-IC            6.91       0          0          FUNCTIONAL 76.50 0          0
C3-TG2           6.91       0          0          FUNCTIONAL 126.00 0          0
C3-JA-010        6.88       0          0          FUNCTIONAL 6112.00 0          0
C3-TG1           6.91       0          0          FUNCTIONAL 126.00 0          0
C3-RG            6.91       0          0          FUNCTIONAL 182.30 0          0
C2-IC2           7.46       0          0          FUNCTIONAL 48.00 0          0
C2-RG            7.46       0          0          FUNCTIONAL 37.50 0          0
C2-TG1           7.46       0          0          FUNCTIONAL 35.00 0          0
C2-TG2           7.46       0          0          FUNCTIONAL 35.00 0          0
C2-JE-050        8.09       0          0          FUNCTIONAL 6132.00 0          0
C2-JE-085        15.19      0          0          FUNCTIONAL 9513.00 0          0
C3-JA-018        7.10       0          0          FUNCTIONAL 14320.00 0          0
C3-EV-060        9.55       0          0          FUNCTIONAL 10870.00 0          0
C3-08-090        8.58       0          0          FUNCTIONAL 2633.00 0          0
C3-LI-116        7.98       0          0          FUNCTIONAL 8389.00 0          0
C1-RG            9.21       0          0          FUNCTIONAL 30.00 0          0
C1-IC            9.21       0          0          FUNCTIONAL 79.60 0          0
C1-TG1           9.21       0          0          FUNCTIONAL 45.00 0          0
C1-TG2           9.21       0          0          FUNCTIONAL 45.00 0          0
C1-FA-030        8.57       0          0          FUNCTIONAL 2275.00 0          0
C1-FA-050        4.63       0          0          FUNCTIONAL 2938.00 0          0
C5-IC2           5.19       0          0          FUNCTIONAL 35.50 0          0
C5-TG2           5.19       0          0          FUNCTIONAL 37.50 0          0
C5-TG1           5.19       0          0          FUNCTIONAL 37.50 0          0
C5-RG            5.19       0          0          FUNCTIONAL 26.00 0          0
C6-TG2           6.83       0          0          FUNCTIONAL 32.50 0          0
C6-TG1           6.83       0          0          FUNCTIONAL 32.50 0          0
C6-WA-020        5.55       0          0          FUNCTIONAL 3468.00 0          0
C6-RG            6.83       0          0          FUNCTIONAL 21.20 0          0
C7-IC2           6.72       0          0          FUNCTIONAL 33.00 0          0
C7-TG2           6.72       0          0          FUNCTIONAL 37.50 0          0
C7-TG1           6.72       0          0          FUNCTIONAL 37.50 0          0
C7-DI-010        5.37       0          0          FUNCTIONAL 8312.00 0          0
C7-RG            6.72       0          0          FUNCTIONAL 22.00 0          0
C5-KA-050        9.80       0          0          FUNCTIONAL 10667.00 0          0
C6-WA-040        8.36       0          0          FUNCTIONAL 4108.00 0          0
C8-IC2           10.40      -0.36      0          FUNCTIONAL 24.00 0          0
C8-TG2           10.04      0          0          FUNCTIONAL 74.40 0          0
C8-TG1           10.04      0          0          FUNCTIONAL 61.25 0          0
C8-02-010        6.32       0          0          FUNCTIONAL 5722.00 0          0
C8-RG            10.04      0          0          FUNCTIONAL 27.00 0          0
C9-IC            8.76       -0.15      0          FUNCTIONAL 24.00 0          0
C9-TG2           8.61       0          0          FUNCTIONAL 37.50 0          0
C9-TG1           8.61       0          0          FUNCTIONAL 37.50 0          0
C9-RG            8.61       0          0          FUNCTIONAL 25.00 0          0
C10-TG2          4.96       0          0          FUNCTIONAL 52.50 0          0
C10-TG1          4.96       0          0          FUNCTIONAL 52.50 0          0
C10-IC           4.96       0          0          FUNCTIONAL 24.00 0          0
PS-ARCH          9.01       -17.22     0          FUNCTIONAL 336.00 0          0
C10-RG           4.96       0          0          FUNCTIONAL 48.10 0          0
C11-IC2          7.55       0          0          FUNCTIONAL 42.00 0          0
C11-TG2          7.55       0          0          FUNCTIONAL 70.00 0          0
C11-TG1          7.55       0          0          FUNCTIONAL 70.00 0          0
C11-CO-010       5.53       0          0          FUNCTIONAL 6161.00 0          0
C11-RG           7.55       0          0          FUNCTIONAL 36.00 0          0
C12-IC2          6.54       0          0          FUNCTIONAL 35.80 0          0
C12-TG2          6.54       0          0          FUNCTIONAL 24.00 0          0
C12-TG1          6.54       0          0          FUNCTIONAL 24.00 0          0
C12-DE-010       5.88       0          0          FUNCTIONAL 2400.00 0          0
C12-RG           6.54       0          0          FUNCTIONAL 24.00 0          0
C13-IC2          5.60       0          0          FUNCTIONAL 33.00 0          0
C13-TG2          5.60       0          0          FUNCTIONAL 70.00 0          0
C13-TG1          5.60       0          0          FUNCTIONAL 70.00 0          0
C13-SE-010       11.62      0          0          FUNCTIONAL 3453.00 0          0
C13-RG           5.60       0          0          FUNCTIONAL 32.00 0          0
C14-IC2          8.82       0          0          FUNCTIONAL 24.00 0          0
C14-TG2          8.82       0          0          FUNCTIONAL 32.50 0          0
C14-TG1          8.82       0          0          FUNCTIONAL 32.50 0          0
C14-RG           8.82       0          0          FUNCTIONAL 18.00 0          0
C13-ST-060       12.76      0          0          FUNCTIONAL 10504.00 0          0
C11-CO-020       9.42       0          0          FUNCTIONAL 3729.00 0          0
C11-FR-040       8.70       0          0          FUNCTIONAL 4773.00 0          0
C11-FR-060       8.47       0          0          FUNCTIONAL 9167.00 0          0
C10-AR-010       4.71       0          0          FUNCTIONAL 7857.00 0          0
C9-BE-050        10.00      0          0          FUNCTIONAL 6557.00 0          0
C8-BE-018        5.55       0          0          FUNCTIONAL 11819.00 0          0
C7-02-018        5.30       0          0          FUNCTIONAL 5201.00 0          0
C3-LI-160        21.55      0          0          FUNCTIONAL 10765.00 0          0
C3-ME-210        33.91      0          0          FUNCTIONAL 17206.00 0          0
C3-08-095        10.31      0          0          FUNCTIONAL 10658.00 0          0
C3-EV-085        16.50      0          0          FUNCTIONAL 5163.00 0          0
C16-IC2          18.36      0          0          FUNCTIONAL 30.00 0          0
C16-TG1          18.36      0          0          FUNCTIONAL 39.00 0          0
C16-RG           18.36      0          0          FUNCTIONAL 30.00 0          0
C16-LI-010       17.63      0          0          FUNCTIONAL 2520.00 0          0
C15-IC2          15.61      0          0          FUNCTIONAL 27.50 0          0
C15-TG1          15.61      0          0          FUNCTIONAL 45.00 0          0
C15-RG           15.61      0          0          FUNCTIONAL 27.50 0          0
C17-IC2          7.53       0          0          FUNCTIONAL 30.00 0          0
C17-TG2          7.53       0          0          FUNCTIONAL 45.00 0          0
C17-TG1          7.53       0          0          FUNCTIONAL 45.00 0          0
C17-RG           7.53       0          0          FUNCTIONAL 30.00 0          0
C17-AD-010       6.03       0          0          FUNCTIONAL 3673.00 0          0
C28-IC2          9.43       0          0          FUNCTIONAL 33.00 0          0
C28-TG2          9.43       0          0          FUNCTIONAL 44.00 0          0
C28-TG1          9.43       0          0          FUNCTIONAL 44.00 0          0
C28-RG           9.43       0          0          FUNCTIONAL 24.00 0          0
C28-ES-030       4.66       0          0          FUNCTIONAL 5124.00 0          0
C19-TG2          13.66      0          0          FUNCTIONAL 75.00 0          0
C19-TG1          13.66      0          0          FUNCTIONAL 75.00 0          0
C19-IC           13.66      0          0          FUNCTIONAL 61.90 0          0
C19-RG           13.66      0          0          FUNCTIONAL 75.00 0          0
C19-PA-010       14.18      0          0          FUNCTIONAL 13970.00 0          0
C27-TG2          11.09      0          0          FUNCTIONAL 58.50 0          0
C27-TG1          11.09      0          0          FUNCTIONAL 58.50 0          0
C27-RG           11.09      0          0          FUNCTIONAL 40.50 0          0
C27-BA-020       10.82      0          0          FUNCTIONAL 11021.00 0          0
C18-IC           20.00      0          0          FUNCTIONAL 30.00 0          0
C18-TG2          19.01      0          0          FUNCTIONAL 42.00 0          0
C18-TG1          19.01      0          0          FUNCTIONAL 42.00 0          0
C18-RG           19.01      0          0          FUNCTIONAL 42.00 0          0
C18-LI-020       17.54      0          0          FUNCTIONAL 8855.00 0          0
C22-TG2          7.85       0          0          FUNCTIONAL 70.00 0          0
C22-TG1          7.85       0          0          FUNCTIONAL 70.00 0          0
C22-IC           9.11       -9.96      0          FUNCTIONAL 200.00 0          0
C22-RG           7.85       0          0          FUNCTIONAL 65.00 0          0
C22-FE-080       14.55      0          0          FUNCTIONAL 13112.00 0          0
PS-PINE          22.62      -24.82     0          FUNCTIONAL 372.00 0          0
PS-STATE         8.40       -7.91      0          FUNCTIONAL 161.00 0          0
C22-FE-010       8.38       0          0          FUNCTIONAL 6678.00 0          0
C22A-TG2         8.90       0          0          FUNCTIONAL 32.50 0          0
C22A-RG          8.90       -0.10      0          FUNCTIONAL 35.75 0          0
C22A-TG1         8.90       0          0          FUNCTIONAL 32.50 0          0
BA-BA-F10        11.09      -1.00      0          FUNCTIONAL 55.00 0          0
C23-TG2          6.04       0          0          FUNCTIONAL 31.50 0          0
C23-TG1          6.04       0          0          FUNCTIONAL 31.50 0          0
C23-RG           6.04       0          0          FUNCTIONAL 20.00 0          0
C23A-HA010       6.54       0          0          FUNCTIONAL 150.00 0          0
C23-IC           6.04       0          0          FUNCTIONAL 20.00 0          0
C24-STOR         6.88       0          0          FUNCTIONAL 100.00 0          0
C24-RG           6.88       0          0          FUNCTIONAL 64.90 0          0
C32-TG1          10.50      0          0          FUNCTIONAL 144.00 0          0
C32-RG           10.50      0          0          FUNCTIONAL 120.00 0          0
C32-IC2          12.43      -1.93      0          FUNCTIONAL 325.00 0          0
C32-IC1          10.50      0          0          FUNCTIONAL 105.00 0          0
C90-HA-020       13.76      -0.09      0          FUNCTIONAL 50937.00 0          0
G2-TG1           5.22       0          0          FUNCTIONAL 16.00 0          0
G2-RG            5.22       0          0          FUNCTIONAL 28.00 0          0
G2-IC            5.09       -0.09      0          FUNCTIONAL 28.00 0          0
G1-CH-003        4.55       0          0          FUNCTIONAL 3838.00 0          0
G1-TG1           5.15       0          0          FUNCTIONAL 36.00 0          0
G1-RG            5.15       0          0          FUNCTIONAL 42.00 0          0
G1-IC            5.15       0          0          FUNCTIONAL 28.00 0          0
G3-JE-005        7.70       0          0          FUNCTIONAL 35480.00 0          0
G3-TG1           6.67       0          0          FUNCTIONAL 20.00 0          0
G3-RG            6.67       0          0          FUNCTIONAL 35.00 0          0
G3-IC            6.67       0          0          FUNCTIONAL 28.00 0          0
G4-MA-020        9.61       0          0          FUNCTIONAL 4160.00 0          0
G4-TG1           7.49       0          0          FUNCTIONAL 27.50 0          0
G4-RG            7.49       0          0          FUNCTIONAL 35.00 0          0
G4-IC            7.49       0          0          FUNCTIONAL 28.00 0          0
G5-EL-010        10.00      0          0          FUNCTIONAL 5674.00 0          0
G5-TG1           10.48      0          0          FUNCTIONAL 20.00 0          0
G5-RG            10.48      0          0          FUNCTIONAL 35.00 0          0
G5-IC            10.48      0          0          FUNCTIONAL 28.00 0          0
G6-ME-040        14.82      0          0          FUNCTIONAL 12569.00 0          0
G6-TG1           10.95      0          0          FUNCTIONAL 16.00 0          0
G6-RG            10.95      0          0          FUNCTIONAL 28.00 0          0
G6-IC            10.95      0          0          FUNCTIONAL 28.00 0          0
G7-BR-020        13.68      0          0          FUNCTIONAL 5644.00 0          0
G7-IC2           7.02       0          0          FUNCTIONAL 28.00 0          0
G7-TG1           7.02       0          0          FUNCTIONAL 16.00 0          0
G7-RG            7.02       0          0          FUNCTIONAL 28.00 0          0
G7-IC            10.20      -7.70      0          FUNCTIONAL 35.00 0          0
BRPS-WW          12.50      -20.10     0          FUNCTIONAL 306.00 0          0
C60-HA-030       10.03      0          0          FUNCTIONAL 5445.00 0          0
C60-LO-080       10.00      0          0          FUNCTIONAL 8935.00 0          0
C24-27-020       14.09      -0.05      0          FUNCTIONAL 9731.00 0          0
C23-PR-040       11.71      0          0          FUNCTIONAL 5694.00 0          0
C22A-RI010       7.03       0          0          FUNCTIONAL 2065.00 0          0
C22A-RI080       15.69      0          0          FUNCTIONAL 296.00 0          0
C22A-RI110       21.15      0          0          FUNCTIONAL 1960.00 0          0
C22A-RI090       17.02      0          0          FUNCTIONAL 568.00 0          0
C22-BA-140       30.60      0          0          FUNCTIONAL 6144.00 0          0
C22-MA-120       16.14      0          0          FUNCTIONAL 4794.00 0          0
C22-EL-230       26.90      0          0          FUNCTIONAL 9646.00 0          0
C22-BE-160       23.95      0          0          FUNCTIONAL 10941.00 0          0
C11-PE-050       12.95      0          0          FUNCTIONAL 4743.00 0          0
C10-MA-050       13.13      0          0          FUNCTIONAL 3228.00 0          0
C14-02-010       9.52       0          0          FUNCTIONAL 2312.00 0          0
C15-ST-020       25.97      0          0          FUNCTIONAL 2302.00 0          0
C17-FE-030       14.40      0          0          FUNCTIONAL 3177.00 0          0
C19-PA-040       14.00      0          0          FUNCTIONAL 4118.00 0          0
C5-KA-010        5.50       0          0          FUNCTIONAL 17206.00 0          0
C3-JA-040        8.13       0          0          FUNCTIONAL 7210.00 0          0
C3-WE-020        6.88       0          0          FUNCTIONAL 3881.00 0          0
C3-10-110        5.97       0          0          FUNCTIONAL 6651.00 0          0
C3-LI-155        15.00      0          0          FUNCTIONAL 10481.00 0          0
C2-JE-020        6.55       0          0          FUNCTIONAL 3517.00 0          0
C2-JE-060        12.93      0          0          FUNCTIONAL 3713.00 0          0
C1-FA-070        8.10       0          0          FUNCTIONAL 4141.00 0          0
C1-FA-108        10.28      0          0          FUNCTIONAL 3267.00 0          0
G1-JE-050        15.91      0          0          FUNCTIONAL 3458.00 0          0
G4-MA-080        10.00      0          0          FUNCTIONAL 1588.00 0          0
CFA-FE-001       13.85      -3.85      0          FUNCTIONAL 136.00 0          0
G2-WA-010        6.00       0          0          FUNCTIONAL 2416.00 0          0
CME-ME-010       7.75       0          0          FUNCTIONAL 206.00 0          0
CME-ME-PS1       9.13       -12.55     0          FUNCTIONAL 179.00 0          0
C19-CH-110       10.50      0          0          FUNCTIONAL 6986.00 0          0
C27-BA-090       13.80      0          0          FUNCTIONAL 8194.00 0          0
C9-MI-060        10.07      0          0          FUNCTIONAL 5288.00 0          0
CFA-FE-010       14.06      0          0          FUNCTIONAL 8114.00 0          0
GL-PS-WW         9.89       -14.87     0          FUNCTIONAL 396.00 0          0
Pennsauken       7.00       0          0          FUNCTIONAL 4000.00 0          0
FM1-BPS          112.85     -100.00    0          FUNCTIONAL 304.00 0          0
C6-IC2           6.83       0          0          FUNCTIONAL 32.00 0          0
C22-EL230A       26.90      0          0          FUNCTIONAL 196.00 0          0
C22-BE160A       23.95      0          0          FUNCTIONAL 100.00 0          0
C23A-HA10A       6.54       0          0          FUNCTIONAL 100.00 0          0
C90-BE-070       27.17      0          0          FUNCTIONAL 22000.00 0          0
1320             8.09       0          0          FUNCTIONAL 6132.00 0          0
1322             12.93      0          0          FUNCTIONAL 3713.00 0          0
1324             15.19      0          0          FUNCTIONAL 9513.00 0          0

[CONDUITS]
;;Name           From             To               Length     Roughness  InOffset   OutOffset  InitFlow   MaxFlow
;;-------------- ---------------- ---------------- ---------- ---------- ---------- ---------- ---------- ----------
OP-WPCF          WPCF             OF-WPCF          200.00     0.0140     -2.45      -2.45      0          0
IC1-WPCF         IC-WPCF          PSWW-WPCF        140.00     0.0140     -11.75     -12.15     0          0
MAGMETER2        GT-County        IC-WPCF          26.50      0.0140     -12.81     -11.75     0          0
MAGMETER1        GT-Camden        IC-WPCF          26.50      0.0140     -12.81     -11.75     0          0
IC1-Cam          C3-IC            GT-Camden        170.00     0.0140     -12.23     -12.80     0          0
IC7-C2           C2-FE-IC50       C3-IC            292.00     0.0140     -8.82      -9.12      0          0
OP-C3            C3-TG2           OF-C3            640.00     0.0130     -1.79      -2.75      0          0
C3RG             C3-RG            C3-IC            10.00      0.0160     -2.40      -2.41      0          0
IC6-C2           C2-FE-IC40       C2-FE-IC50       273.00     0.0140     -8.52      -8.82      0          0
IC5-C2           C2-IC            C2-FE-IC40       1757.00    0.0140     -6.45      -8.52      0          0
IC3-C2           C2-IC2           C2-IC            990.00     0.0140     -5.03      -6.45      0          0
TS1-C2           C2-JE-009        C2-RG            120.00     0.0170     -0.87      -2.77      0          0
OP-C2            C2-TG2           OF-C2            318.00     0.0140     -3.02      -3.05      0          0
TS2-C2           ?                Node_1518250     148.00     0.0170     -0.80      -0.87      0          0
TS4-C2           C2-JE-055        C2-JE-050        849.00     0.0170     1.40       0.59       0          0
TS5-C2           ?                Node_1270261     305.00     0.0170     1.40       1.40       0          0
TS7-C2           ?                Node_1299266     671.00     0.0140     5.65       4.79       0          0