;; SWMM5 .inp converted from XPSWMM .xp file
;; Generated by XPSWMM Card Reader
;; Source format: XP_CARD | Original title: 3327 PROSERPINE F.S. - EXISTING CONDITIONS - 60 MIN STORM

[TITLE]
;;Project Title/Notes
3327 PROSERPINE F.S. - EXISTING CONDITIONS - 60 MIN STORM

[OPTIONS]
FLOW_UNITS           CMS
INFILTRATION         HORTON
FLOW_ROUTING         DYNWAVE
LINK_OFFSETS         DEPTH
MIN_SLOPE            0.0
ALLOW_PONDING        NO
SKIP_STEADY_STATE    NO
ROUTING_STEP         00:00:15
VARIABLE_STEP        0.75
INERTIAL_DAMPING     PARTIAL
NORMAL_FLOW_LIMITED  BOTH
MAX_TRIALS           50
HEAD_TOLERANCE       .001

[JUNCTIONS]
;;Name           Elev       MaxDepth   InitDepth  SurDepth   Aponded
;;-------------- ---------- ---------- ---------- ---------- ----------
COMP1            12.67      0          0          0          0
COMP2            12.31      0          0          0          0
FAU1             12.19      0          0          0          0
JUP1             12.58      0          0          0          0
DOH2             12.61      0          0          0          0
DODD2            12.64      0          0          0          0
DOH1             12.70      0          0          0          0
JUP3             10.35      0          0          0          0
ANZAC1           8.89       0          0          0          0
JUP4             12.06      0          0          0          0
BARRY2           11.39      0          0          0          0
DODD5            10.90      0          0          0          0
DODD1            12.31      0          0          0          0
ANN1             12.95      0          0          0          0
ANN4             10.41      0          0          0          0
ANZAC8           10.90      0          0          0          0
ANZAC9           11.62      0          0          0          0
NICOL1           10.81      0          0          0          0
NICOL2           9.36       0          0          0          0
FAU6             12.95      0          0          0          0
TELF1            13.56      0          0          0          0
MANN2            13.25      0          0          0          0
HIN1             12.95      0          0          0          0
MILL5            13.86      0          0          0          0
HIN2             11.42      0          0          0          0
HIN3             11.40      0          0          0          0
HIN5             11.38      0          0          0          0
HIN6             11.42      0          0          0          0
HIN7             11.73      0          0          0          0
HIN8             12.34      0          0          0          0
HIN9             10.35      0          0          0          0
PEP2             10.23      0          0          0          0
STAN4            10.59      0          0          0          0
MILL2            12.19      0          0          0          0
MILL3            13.86      0          0          0          0
ROB2             12.64      0          0          0          0
CHAP6            13.25      0          0          0          0
HERB4            13.47      0          0          0          0
TELIA1           12.95      0          0          0          0
ROB3             12.70      0          0          0          0
ROB4             12.72      0          0          0          0
STAN1            12.46      0          0          0          0
STAN2            12.64      0          0          0          0
STAN3            12.64      0          0          0          0
PEP1             12.34      0          0          0          0
DOB2             13.62      0          0          0          0
CHAP4            13.86      0          0          0          0
HERB3            13.86      0          0          0          0
BLAIR1           11.00      0          0          0          0
CHAP2            12.95      0          0          0          0
CHAP1            11.55      0          0          0          0
HERB2            12.95      0          0          0          0
HERB1            11.35      0          0          0          0
BRUCE2           11.06      0          0          0          0
CHAP9            12.34      0          0          0          0
BODE3            13.39      0          0          0          0
FLO2             13.42      0          0          0          0
TELIA2           13.01      0          0          0          0
DUD1             9.86       0          0          0          0
DUD2             9.25       0          0          0          0
ATK1             8.34       0          0          0          0
DEB1             8.15       0          0          0          0
BRUCE9           11.88      0          0          0          0
DAYB1            10.81      0          0          0          0
DAYB2            10.36      0          0          0          0
DEB2             7.95       0          0          0          0
ATK2             7.93       0          0          0          0
DUD3             7.81       0          0          0          0
BRUCE3           12.49      0          0          0          0
BRUCE4           10.30      0          0          0          0
FUL1             11.49      0          0          0          0
FUL2             11.56      0          0          0          0
FUL3             12.45      0          0          0          0
FUL5             12.77      0          0          0          0
FUL6             12.15      0          0          0          0
HANS3            12.65      0          0          0          0
FUL7             11.69      0          0          0          0
REN5             10.25      0          0          0          0
REN2             10.09      0          0          0          0
424              10.50      0          0          0          0
426              8.17       0          0          0          0
CHAP10           12.32      0          0          0          0
FLO3             13.14      0          0          0          0
STERY4           12.34      0          0          0          0
437              5.92       0          0          0          0
439              6.52       0          0          0          0
REN6             10.60      0          0          0          0
HANS6            11.12      0          0          0          0
FUL9             10.66      0          0          0          0
470              7.99       0          0          0          0
RUGE6            12.98      0          0          0          0
GARD2            12.20      0          0          0          0
CARN3            12.68      0          0          0          0
511              8.69       0          0          0          0
515              12.42      0          0          0          0
HIN4             11.38      0          0          0          0
DODD6            9.59       0          0          0          0
534              9.45       0          0          0          0
MANN5            11.20      0          0          0          0
FULL5            10.05      0          0          0          0
FULL4            8.28       0          0          0          0
BADIL2           13.85      0          0          0          0
PIND2            10.56      0          0          0          0
KJ6              10.00      0          0          0          0
KJ1              12.64      0          0          0          0
KJ2              12.09      0          0          0          0
KJ3              11.42      0          0          0          0
KJ4              11.27      0          0          0          0
KJ5              9.68       0          0          0          0
REN9             9.16       0          0          0          0
FUL4             12.64      0          0          0          0
SPALL2           12.50      0          0          0          0
SPALL3           12.20      0          0          0          0
BIGS3            12.10      0          0          0          0
SPALL6           12.30      0          0          0          0
CARN2            11.75      0          0          0          0
CARN1            11.62      0          0          0          0
GARD1            11.50      0          0          0          0
DODD4            11.53      0          0          0          0
DAVEY2           12.19      0          0          0          0
FUL8             11.11      0          0          0          0
TROJ1            11.50      0          0          0          0
DOB1             13.11      0          0          0          0
MAIN3            13.35      0          0          0          0
704              6.76       0          0          0          0
718              6.22       0          0          0          0
HS2              10.93      0          0          0          0
727              11.36      0          0          0          0
BADIL3           12.26      0          0          0          0
RUGE9            12.98      0          0          0          0
BADIL6           8.97       0          0          0          0
REN10            8.89       0          0          0          0
TROJ2            11.17      0          0          0          0
BIGS1            11.54      0          0          0          0
ANZAC6           10.32      0          0          0          0
BRUCE1           11.14      0          0          0          0
CRAIL1           10.89      0          0          0          0
CRAIL2           10.14      0          0          0          0
CRAIL3           9.70       0          0          0          0
SPALL4           12.20      0          0          0          0
BARRY1           12.46      0          0          0          0
JUP2             11.73      0          0          0          0
DODD3            11.73      0          0          0          0
FULJ-OUT         9.60       0          0          0          0
781              10.40      0          0          0          0
783              12.32      0          0          0          0

[CONDUITS]
;;Name           From             To               Length     Roughness  InOffset   OutOffset  InitFlow   MaxFlow
;;-------------- ---------------- ---------------- ---------- ---------- ---------- ---------- ---------- ----------
COMPST           COMP1            COMP2            100.00     0          11.67      11.16      0          0
PKCRD4           COMP2            FAU1             45.00      0          11.31      10.82      0          0
FAUST1           JUP1             FAU1             190.00     0.0140     11.58      10.82      0          0
FAUST2           DOH2             JUP1             80.00      0          11.61      11.58      0          0
DOHST1           DOH1             DOH2             100.00     0          11.70      11.61      0          0
JUPST1           JUP1             JUP2             130.00     0          11.58      10.73      0          0
JUPST2           JUP2             JUP3             240.00     0          10.73      9.35       0          0
JUPST3           JUP4             JUP3             195.00     0          11.06      9.35       0          0
ANZRD2           BARRY2           JUP3             90.00      0          10.39      9.35       0          0
ANZRD3           BARRY2           DODD5            85.00      0          10.39      8.70       0          0
BARST1           BARRY1           BARRY2           240.00     0.0140     11.46      10.39      0          0
DODST1           DODD1            DODD2            26.00      0          11.31      10.95      0          0
263.1            DODD3            DODD4            145.00     0          9.21       9.21       0          0
DODDST4          DODDPIP4         DODD5            118.00     0          10.53      9.90       0          0
FAUST4           ANN1             DODD2            350.00     0          11.95      10.95      0          0
ANNST2           ANN1             ANN4             395.00     0          11.95      8.41       0          0
274.1            ANZAC8           ANN4             178.00     0          8.90       8.41       0          0
ANZRD8           ANZAC9           ANZAC8           190.00     0          10.42      8.90       0          0
ANZRD4           NICOL1           DODD5            255.00     0          9.81       8.70       0          0
NICST1           NICOL1           NICOL2           190.00     0          9.81       8.36       0          0
FAUST5           ANN1             FAU6             245.00     0          11.95      11.95      0          0
TELST1           TELF1            MANN2            170.00     0          12.56      12.25      0          0
MANST2           MANN2            FAU6             120.00     0          12.25      11.95      0          0
MAIST1           HIN1             FAU6             70.00      0          11.95      11.95      0          0
MAIST2           MAIN3            HIN1             160.00     0          12.35      11.05      0          0
297.P            297.R            HIN2             230.00     0.0150     11.05      9.52       0          0
HINST5           HIN6             HIN5             95.00      0          10.42      10.38      0          0
HINST6           HIN7             HIN6             40.00      0          10.73      10.42      0          0
HINST7           HIN8             HIN7             55.00      0          11.34      10.73      0          0
HINST8           HIN8             HIN9             230.00     0          11.34      9.35       0          0
RENLA1           HIN9             REN2             92.00      0          9.35       9.09       0          0
MARST1           ROB2             HIN2             280.00     0          11.64      10.42      0          0
MARST2           CHAP6            ROB2             135.00     0          12.25      11.64      0          0
MARST3           HERB4            CHAP6            220.00     0          12.47      12.25      0          0
MARST5           HERB4            TELIA1           90.00      0          12.47      11.95      0          0
SMTHST           ROB3             HIN3             280.00     0          11.70      10.40      0          0
ROBST3           ROB4             ROB3             125.00     0          11.72      11.70      0          0
LIZST1           STAN1            HIN5             245.00     0          11.46      10.38      0          0
STAST1           STAN2            STAN1            55.00      0          11.64      11.46      0          0
STAST2           STAN2            STAN3            90.00      0          11.64      11.64      0          0
STAST3           STAN3            STAN4            230.00     0.0140     11.64      9.59       0          0
PEPST1           PEP1             PEP2             230.00     0          11.34      9.23       0          0
MAIST4           MILL5            CHAP4            190.00     0          12.86      12.86      0          0
MAIST5           CHAP4            HERB3            220.00     0          12.86      11.95      0          0
MAIST6           HERB3            BLAIR1           150.00     0          11.95      10.00      0          0
MILST3           MILL5            MILL3            185.00     0          12.86      12.86      0          0
CHAST2           CHAP4            CHAP2            190.00     0          12.86      11.95      0          0
CHAST1           CHAP2            CHAP1            100.00     0          11.95      10.55      0          0
MILST2           MILL3            MILL2            100.00     0          12.86      11.19      0          0
HERST2           HERB3            HERB2            220.00     0          12.86      11.95      0          0
HERST1           HERB2            HERB1            110.00     0          11.83      10.35      0          0
RUGST2           ROB4             CHAP9            130.00     0          11.72      11.34      0          0
DUDRD1           DUD1             DUD2             97.00      0          8.36       7.75       0          0
FULST1           DUD2             ATK1             110.00     0          7.75       7.34       0          0
FULST2           ATK1             DEB1             125.00     0          7.34       7.15       0          0
DAYBST           DAYB1            DAYB2            110.00     0          9.81       9.36       0          0
DEBST            DEB1             DEB2             150.00     0          7.15       6.95       0          0
RENLA2           PEP2             REN2             37.00      0          9.23       9.09       0          0
RENLA3           STAN4            PEP2             92.00      0          9.59       9.23       0          0
420.1            STAN4            REN5             115.00     0          9.59       9.25       0          0
HOLST1           PEP1             HIN8             120.00     0          11.34      11.34      0          0
HOLST2           STAN3            PEP1             95.00      0          11.64      11.34      0          0
BIGOUT           REN5             426              509.00     0          9.25       7.17       0          0
REN2.B           REN2.C           424              10.00      0.0140     9.09       0          0          0
CHAST9           CHAP9            CHAP10           100.00     0          11.34      10.98      0          0
DUDRD2           DUD2             DUD3             230.00     0          7.75       6.31       0          0
ATKST            ATK1             ATK2             160.00     0          7.34       6.93       0          0
DUDOUT           DUD3             437              223.00     0.0400     6.31       4.92       0          0
DEBOUT           DEB2             ATK2             50.00      0          6.95       6.93       0          0
420.1            REN6             REN5             104.00     0          9.22       9.25       0          0
444.1            REN6             DUD1             250.00     0          9.10       8.36       0          0
STEST1           FLO3             CHAP10           180.00     0          11.64      10.98      0          0
STEST2           FLO3             KJ1              110.00     0          11.64      11.64      0          0
447.1            DUD1             KJ5              94.00      0          8.36       8.30       0          0
RUST10           RUGE9            FUL5             165.00     0          11.95      11.77      0          0
FULJ3            FUL4             FUL3             110.00     0.0140     11.64      11.45      0          0
FULJ2.R          FULJ2.P          FUL2             115.00     0.0140     10.56      10.49      0          0
FULJ1.R          FULJ1.P          FUL1             115.00     0.0140     10.56      10.49      0          0
FULJ5            FUL5             FUL6             85.00      0.0140     11.77      11.15      0          0
FULJ6            FUL6             FUL7             55.00      0.0140     11.15      10.69      0          0
HANDR2           HANS3            FUL6             100.00     0.0350     11.65      11.15      0          0
HANDR6           HANS3            HANS6            210.00     0          11.65      10.12      0          0
468.1            FUL7             FUL8             85.00      0          10.69      10.11      0          0
603.1            DAYB1            FUL9             114.00     0          8.07       7.74       0          0
ROUT3C           470              DEB2             73.00      0          6.99       6.95       0          0
ROUT3B           FULL4            470              183.00     0          7.28       6.99       0          0
TELST            TELIA1           TELIA2           230.00     0          11.95      11.89      0          0
FLOST1           HERB4            FLO2             250.00     0          12.47      11.92      0          0
CHAST6           CHAP6            CHAP9            255.00     0          12.25      11.34      0          0
RUGST3           BODE3            CHAP9            80.00      0          11.89      11.34      0          0
RUGST4           FLO2             BODE3            105.00     0          11.92      11.89      0          0
FLOST2           FLO2             FLO3             100.00     0          11.92      11.64      0          0
RUGST5           RUGE6            FLO2             35.00      0          11.92      11.89      0          0
RUGST6           TELIA2           RUGE6            80.00      0          11.95      11.92      0          0
RUGST1           ROB4             STAN1            100.00     0          11.72      11.46      0          0
PHILST           STAN2            HIN6             215.00     0          11.64      10.42      0          0
ROBST2           ROB3             ROB2             125.00     0          11.70      11.64      0          0
MARST6           TELIA1           FUL3             270.00     0          11.95      11.45      0          0
510.1            BRUCE9           GARD2            75.00      0          10.26      6.79       0          0
510.1            CARN3            GARD2            190.00     0          9.68       6.79       0          0
REOUT4           GARD2            511              10.00      0.0350     6.79       6.69       0          0
513.1            CARN3            DAYB1            280.00     0          9.68       8.59       0          0
516.b            516.e            515              70.00      0.0130     11.19      10.42      0          0
HIN4.B           HIN4.R           HIN4             50.00      0.0150     9.59       9.47       0          0
HIN2.P           HIN2.R           HIN3             130.00     0.0150     9.52       9.49       0          0
525.C1           525.C2           525.C3           10.00      0.0150     0          0          0          0
529.1            DODD5            DODD6            109.00     0          8.70       8.59       0          0
ANZRD5           NICOL1           ANZAC6           95.00      0          9.81       8.32       0          0
ANNOUT           ANZAC6           534              271.00     0          8.32       7.45       0          0
DODOUT           DODD6            NICOL2           125.00     0          8.59       8.36       0          0
NICOUT           NICOL2           534              108.00     0          8.36       7.45       0          0
SPORT3           FAU6             MANN5            470.00     0.0350     11.95      10.09      0          0
547.B            547.CH           ANZAC8           100.00     0.0150     10.09      8.90       0          0
CHAST5           CHAP4            CHAP6            225.00     0          12.86      12.25      0          0
WAITST           MILL3            CHAP2            185.00     0          12.86      11.95      0          0
EDWST            HERB2            BRUCE3           185.00     0          11.83      11.49      0          0
HERST3           HERB4            HERB3            225.00     0          12.47      11.95      0          0
ROBST1           DOB2             ROB2             120.00     0          12.12      11.64      0          0
DOBLAN           MILL5            DOB2             110.00     0          12.86      12.62      0          0
BRUHI2           BRUCE2           BRUCE3           175.00     0          10.06      11.49      0          0
BLRST            BRUCE3           BLAIR1           120.00     0          11.49      10.00      0          0
MAIN ST 7        MAINPIP7         BRUCE4           176.00     0.0140     10.00      9.30       0          0
BRUCE4-R         BRUCE4-P         BRUCE4           105.00     0          10.49      9.30       0          0
BRU5.R           BRU5.B           FUL1             200.00     0          10.54      10.49      0          0
FULST4           DAYB2            FULL5            60.00      0          9.36       9.05       0          0
ROUT3A           REN10            FULL4            114.00     0          7.74       7.28       0          0
FULST3           FULL5            FULL4            45.00      0.0150     9.05       7.28       0          0
RUGST7           TELIA2           BADIL2           90.00      0          11.95      11.95      0          0
RUGST8           BADIL2           RUGE9            10.00      0          11.95      11.95      0          0
BADRE2           BADIL3           STERY4           30.00      0          8.83       8.56       0          0
BADRE3           STERY4           PIND2            97.00      0          8.45       8.21       0          0
BADRE4           PIND2            BADIL6           182.00     0          8.21       7.97       0          0
KJDR1            KJ1              KJ2              100.00     0          11.64      11.09      0          0
PINDPL           KJ2              PIND2            100.00     0          11.09      9.56       0          0
KJDR2            KJ2              KJ3              100.00     0          11.09      10.42      0          0
KJDR3            KJ3              KJ4              40.00      0          10.42      10.27      0          0
KJDR4            KJ4              KJ5              50.00      0          10.27      8.68       0          0
KJDR5            KJ4              KJ6              60.00      0          10.27      9.00       0          0
BADRE6           KJ6              REN9             61.00      0          8.40       8.16       0          0
STEST3           STERY4           KJ1              100.00     0          11.34      11.64      0          0
599.1            JUP3             ANZAC1           151.00     0          9.35       7.89       0          0
603.1            REN9             REN10            114.00     0          8.07       7.74       0          0
603.1            KJ5              REN9             76.00      0          8.30       8.07       0          0
SPADR1           FUL4             SPALL2           100.00     0          11.64      11.50      0          0
SPADR2           SPALL2           SPALL3           165.00     0          11.50      11.20      0          0
SPADR3           SPALL3           BIGS3            55.00      0          11.20      11.10      0          0
SPADR5           SPALL6           SPALL4           175.00     0          11.30      11.20      0          0
FULJ4            FUL5             FUL4             65.00      0.0140     11.77      11.64      0          0
CARST2           CARN2            CARN3            55.00      0          10.75      10.75      0          0
CARST1           CARN1            CARN2            170.00     0          10.62      10.75      0          0
GARDCR           GARD1            GARD2            170.00     0          10.50      11.20      0          0
roadway          culvert          DOH2             90.00      0          11.64      11.61      0          0
DAVAV1           BLAIR1           DAVEY2           115.00     0          10.00      11.19      0          0
DAVAV2           DAVEY2           FUL2             230.00     0          11.19      10.56      0          0
BRUHI3           BRUCE3           BRUCE4           190.00     0          11.49      9.30       0          0
ANZRD9           HIN7             ANZAC9           50.00      0          10.73      10.62      0          0
FULJ8            FUL8             FUL9             135.00     0          10.11      9.66       0          0
ROAD-A           MAIN3            DOB1             100.00     0          12.35      12.11      0          0
MAIST3           MILL5            MAIN3            70.00      0          12.86      12.35      0          0
DODDST2          DODSTPIP2        DODD3            133.00     0.0350     11.64      10.73      0          0
709              ?                ?                470.00     0          7.45       5.76       0          0
713              ?                ?                378.00     0          7.89       5.22       0          0
HSDR1            ROB4             HS2              336.00     0          11.72      9.30       0          0
HSDR2            HS2              REN5             70.00      0          9.30       9.25       0          0
CHAOUT           CHAP10           REN6             280.00     0.3500     11.32      9.10       0          0
BAD1.P           BAD1.R           BADIL3           65.00      0.0150     11.15      8.83       0          0
731              ?                ?                40.00      0.0150     10.36      8.83       0          0
733              ?                ?                30.00      0.0350     11.95      10.36      0          0
BADRE5           BADIL6           REN10            40.00      0          7.97       7.89       0          0
603.1            FUL9             REN10            70.00      0          9.66       7.74       0          0
ATKOUT           ATK2             439              551.00     0          6.93       5.52       0          0
TRJCR1           TROJ1            TROJ2            130.00     0          10.50      10.17      0          0
TRJCR2           TROJ2            FUL8             60.00      0          10.17      10.11      0          0
TRJOUT           TROJ2            BADIL6           38.00      0          9.03       7.97       0          0
BIG2.R           BIG2.P           BIGS1            100.00     0          11.10      10.54      0          0
274.1            ANN4             ANZAC6           48.00      0          8.41       8.32       0          0
BRUHI1           BRUCE2           BRUCE1           37.00      0          10.06      10.14      0          0
757              ?                ?                149.00     0          10.14      9.89       0          0
CNERWY1          CRAIL1           CRAIL2           263.00     0          9.89       9.14       0          0
CNERWY2          CRAIL2           CRAIL3           257.00     0          9.14       8.70       0          0
SPADR4           SPALL4           BIGS3            40.00      0          11.20      11.10      0          0
PHAST1           BARRY1           JUP2             85.00      0          11.46      10.73      0          0
PHAST2           BARRY1           DODD3            75.00      0          11.46      9.21       0          0