;; SWMM5 .inp converted from XPSWMM .xp file
;; Generated by XPSWMM Card Reader
;; Source format: XP_CARD | Original title: Baseline Projection Run

[TITLE]
;;Project Title/Notes
Baseline Projection Run

[OPTIONS]
FLOW_UNITS           CFS
INFILTRATION         HORTON
FLOW_ROUTING         DYNWAVE
LINK_OFFSETS         DEPTH
MIN_SLOPE            0.0
ALLOW_PONDING        NO
SKIP_STEADY_STATE    NO
ROUTING_STEP         00:00:15
VARIABLE_STEP        0.75
INERTIAL_DAMPING     PARTIAL
NORMAL_FLOW_LIMITED  BOTH
MAX_TRIALS           30
HEAD_TOLERANCE       0.0033

[JUNCTIONS]
;;Name           Elev       MaxDepth   InitDepth  SurDepth   Aponded
;;-------------- ---------- ---------- ---------- ---------- ----------
HP8              2.60       0          0.01       0          0
HP9              8.00       0          0.01       0          0
JC2              14.26      0          0.01       0          0
JC1              25.40      0          0.01       0          0
HP12             2.60       0          0          0          0
IMH2             12.60      0          0.01       0          0
DTCHAM           12.60      0          0.01       0          0
IMH3             22.60      0          0.01       0          0
IMH4             22.60      0          0.01       0          0
IMH1             18.50      0          0.01       0          0
IMH5             12.60      0          0.01       0          0
HP7              6.00       0          0.01       0          0
HP6              2.60       0          0.01       0          0
C2               17.00      0          0.01       0          0
C1               22.60      0          0.01       0          0
CSO24            29.30      0          0.01       0          0
C3               16.20      0          0.01       0          0
ILS1             22.60      0          0.01       0          0
C5               29.30      0          0.01       0          0
C4               12.60      0          0.01       0          0
C6               20.00      0          0.01       0          0
C7               30.00      0          0.01       0          0
C9               10.00      0          0.01       0          0
C8               20.00      0          0.01       0          0
C11              13.80      0          0.01       0          0
C10              10.00      0          0.01       0          0
C12              20.00      0          0.01       0          0
C13              22.65      0          0          0          0
C14              28.40      0          0          0          0
IO54             40.00      0          0          0          0
C15              40.00      0          0          0          0
C16              40.00      0          0          0          0
C17              38.00      0          0          0          0
C18              50.00      0          0          0          0
C19              51.60      0          0          0          0
C20              65.00      0          0          0          0
C21              70.00      0          0          0          0
C26              40.00      0          0          0          0
C27              40.00      0          0          0          0
C28              50.00      0          0          0          0
C29              60.00      0          0          0          0
C22              70.00      0          0          0          0
C23              40.00      0          0          0          0
C24              40.00      0          0          0          0
C25              40.00      0          0          0          0
C30              40.00      0          0          0          0
C31              40.00      0          0          0          0
C32              42.00      0          0          0          0
C33              48.00      0          0          0          0
C34              65.00      0          0          0          0
C35              72.00      0          0          0          0
C63              80.00      0          0          0          0
C62              87.00      0          0          0          0
C64              87.00      0          0          0          0
C58              85.00      0          0          0          0
C61              85.00      0          0          0          0
C59              90.00      0          0          0          0
C60              95.00      0          0          0          0
C57              90.00      0          0          0          0
C56              90.00      0          0          0          0
C52              80.00      0          0          0          0
C53              80.00      0          0          0          0
C54              80.00      0          0          0          0
C55              80.00      0          0          0          0
C50              65.00      0          0          0          0
C51              65.00      0          0          0          0
C49              55.00      0          0          0          0
C48              30.00      0          0          0          0
Node_403         0          0          0          0          0
CSO28A           30.00      0          0          0          0
CSO28AW          35.00      0          0          0          0
C47              30.00      0          0          0          0
CSO28W           20.00      0          0          0          0
HP24             10.00      0          0          0          0
C46              25.00      0          0          0          0
C44              30.00      0          0          0          0
C43              40.00      0          0          0          0
C42              40.00      0          0          0          0
C41              40.00      0          0          0          0
C40              25.00      0          0          0          0
C39              25.00      0          0          0          0
C38              40.00      0          0          0          0
C37              40.00      0          0          0          0
C36              20.00      0          0          0          0
C45              30.00      0          0          0          0
HP21             10.00      0          0          0          0
ILS1A            20.00      0          0          0          0
C65              10.00      0          0          0          0
CSO25            10.00      0          0          0          0
CSO25W           20.00      0          0          0          0
C94              20.00      0          0          0          0
C90              20.00      0          0          0          0
C70              15.00      0          0          0          0
C71              15.00      0          0          0          0
CSO26            10.00      0          0          0          0
CSO26W           10.00      0          0          0          0
HP22             10.00      0          0          0          0
C72              15.00      0          0          0          0
C73              20.00      0          0          0          0
C74              20.00      0          0          0          0
C75              20.00      0          0          0          0
C95              20.00      0          0          0          0
C91              20.00      0          0          0          0
C96              20.00      0          0          0          0
C92              20.00      0          0          0          0
C97              20.00      0          0          0          0
C93              20.00      0          0          0          0
IO7              20.00      0          0          0          0
C84              20.00      0          0          0          0
I/O52            20.00      0          0          0          0
C80              20.00      0          0          0          0
C81              20.00      0          0          0          0
C82              20.00      0          0          0          0
C85              30.00      0          0          0          0
C86              30.00      0          0          0          0
C87              50.00      0          0          0          0
C142             110.00     0          0          0          0
C141             95.00      0          0          0          0
C140             110.00     0          0          0          0
C139             100.00     0          0          0          0
C138             80.00      0          0          0          0
C137             70.00      0          0          0          0
C136             65.00      0          0          0          0
C135             70.00      0          0          0          0
C134             70.00      0          0          0          0
C133             70.00      0          0          0          0
C132             60.00      0          0          0          0
C131             90.00      0          0          0          0
C130             110.00     0          0          0          0
C127             100.00     0          0          0          0
C126             60.00      0          0          0          0
C125             80.00      0          0          0          0
C124             40.00      0          0          0          0
IO12             60.00      0          0          0          0
C123             40.00      0          0          0          0
C122             60.00      0          0          0          0
C120             65.00      0          0          0          0
C121             65.00      0          0          0          0
CSO27A1          50.00      0          0          0          0
C102             40.00      0          0          0          0
DivCham          10.00      0          0          0          0
ILS3             20.00      0          0          0          0
C100             25.00      0          0          0          0
CSO27AW          50.00      0          0          0          0
CSO27A2          50.00      0          0          0          0
C101             25.00      0          0          0          0
CSO27            20.00      0          0          0          0
CSO27W           20.00      0          0          0          0
C103             35.00      0          0          0          0
C104             40.00      0          0          0          0
C105             40.00      0          0          0          0
C106             50.00      0          0          0          0
C107             50.00      0          0          0          0
IO28             55.00      0          0          0          0
JC3              55.00      0          0          0          0
C109             55.00      0          0          0          0
C110             60.00      0          0          0          0
C108             100.00     0          0          0          0
C111             65.00      0          0          0          0
C112             65.00      0          0          0          0
C113             65.00      0          0          0          0
IO49             60.00      0          0          0          0
C115             80.00      0          0          0          0
C114             70.00      0          0          0          0
IO48             80.00      0          0          0          0
C117             100.00     0          0          0          0
C116             90.00      0          0          0          0
CSO28            20.00      0          0          0          0
IO28of           55.00      0          0          0          0
CSO28O           20.00      0          0          0          0
CSO27A1O         50.00      0          0          0          0
WPCPOF           15.00      0          0          0          0
SC1              20.00      0          0          0          0
SC2              20.00      0          0          0          0
SC-OF            10.00      0          0          0          0
pumpback         20.00      0          0          0          0

[STORAGE]
;;Name           Elev       MaxDepth   InitDepth  Shape      Curve/Params
;;-------------- ---------- ---------- ---------- ---------- ----------
R5               9.30       0          0.40       FUNCTIONAL 400.00 0          0
R5-O             9.30       0          0.56       FUNCTIONAL 400.00 0          0
R5-W             9.30       0          0.01       FUNCTIONAL 400.00 0          0
R6               20.00      0          0          FUNCTIONAL 400.00 0          0
R6-W             18.00      0          0          FUNCTIONAL 400.00 0          0
R6-O             18.00      0          0.01       FUNCTIONAL 400.00 0          0
R7               14.00      0          0.01       FUNCTIONAL 400.00 0          0
R7-W             14.00      0          0.01       FUNCTIONAL 400.00 0          0
R7-O             14.00      0          0.01       FUNCTIONAL 400.00 0          0
R9A              6.10       0          0.01       FUNCTIONAL 400.00 0          0
R9A-W            6.10       0          0.01       FUNCTIONAL 400.00 0          0
R9-O             10.00      0          0.01       FUNCTIONAL 400.00 0          0
R9               10.00      0          0.01       FUNCTIONAL 400.00 0          0
R9-W             10.00      0          0.01       FUNCTIONAL 400.00 0          0
R8-W             21.00      0          0.01       FUNCTIONAL 400.00 0          0
R8               21.00      0          0.01       FUNCTIONAL 400.00 0          0
R8-O             21.00      0          0.01       FUNCTIONAL 400.00 0          0
R10              14.15      0          0.01       FUNCTIONAL 200.00 0          0
R10-O            14.15      0          0.01       FUNCTIONAL 400.00 0          0
R10-W            14.15      0          0.01       FUNCTIONAL 400.00 0          0
R13              9.80       0          0.01       FUNCTIONAL 400.00 0          0
R13-W            9.80       0          0          FUNCTIONAL 400.00 0          0
R13-O            9.80       0          0.01       FUNCTIONAL 400.00 0          0
PS               14.26      0          0          FUNCTIONAL 0 0          0
PSOF             15.00      0          0          FUNCTIONAL 100.00 0          0

[CONDUITS]
;;Name           From             To               Length     Roughness  InOffset   OutOffset  InitFlow   MaxFlow
;;-------------- ---------------- ---------------- ---------- ---------- ---------- ---------- ---------- ----------
HP12OF           R13-W            HP12             150.00     0.0140     -6.37      -6.56      0          0
BB1-2            R13-O            IMH2             780.00     0.0140     -10.50     -12.00     0          0
BB1-1            IMH2             DTCHAM           270.00     0.0140     -12.00     -12.50     0          0
SIPHON           DTCHAM           IMH3             700.00     0.0140     -16.10     -19.80     0          0
BI5              IMH3             IMH4             750.00     0.0140     -19.80     -20.00     0          0
BI6              IMH4             JC1              3300.00    0.0140     -20.00     -22.40     0          0
BI7              JC1              JC2              1350.00    0.0140     -22.40     -22.90     0          0
BI8              R10-O            JC2              1930.00    0.0140     -10.20     -15.00     0          0
HP9OF            R10-W            HP9              1980.00    0.0140     -4.47      -5.89      0          0
BB2-1            R8-O             IMH5             750.00     0.0140     -6.85      -8.75      0          0
BB2-2            IMH5             R9-O             650.00     0.0140     -8.75      -9.30      0          0
BB2-3            R9-O             JC1              1330.00    0.0140     -9.30      -13.00     0          0
BB2-4            R9A              R9-O             650.00     0.0140     -3.00      -9.30      0          0
20               R9-W             R9A-W            550.00     0.0140     -4.48      -5.62      0          0
HP8OF            R9A-W            HP8              150.00     0.0140     -5.62      -5.95      0          0
HP7OF            R8-W             HP7              1000.00    0.0140     -4.08      -5.93      0          0
BI4              IMH1             DTCHAM           1380.00    0.0140     -15.60     -16.10     0          0
BI3              R7-O             IMH1             1550.00    0.0140     -12.70     -15.60     0          0
BI2              R6-O             R7-O             800.00     0.0140     -12.00     -12.70     0          0
BI1              R5-O             R6-O             2160.00    0.0140     -5.55      -8.00      0          0
HP6OF            R5-W             HP6              400.00     0.0140     -5.33      -6.50      0          0
4                R7-W             C2               1500.00    0.0140     -3.90      -4.42      0          0
2                C2               C1               750.00     0.0140     -4.42      -4.79      0          0
1                C1               R5               570.00     0.0140     -4.79      -5.55      0          0
3                R6-W             C1               1550.00    0.0140     -3.00      -4.79      0          0
6                CSO24            C3               750.00     0          -1.10      -1.53      0          0
5                C3               R6               1510.00    0          -1.53      -2.60      0          0
9                ILS1             C5               850.00     0          -2.48      -2.87      0          0
8                C5               C4               1200.00    0.0140     -2.87      -3.40      0          0
7                C4               R7               830.00     0          -3.40      -3.90      0          0
10               C6               R13              500.00     0.0140     -5.76      -9.33      0          0
11               C7               R8               2000.00    0.0140     1.85       -6.10      0          0
13               C9               C8               720.00     0.0140     -0.32      -1.79      0          0
12               C8               R9A              520.00     0.0140     -2.24      -3.58      0          0
14               C11              C10              500.00     0.0140     -1.76      -3.33      0          0
15               C10              R9               600.00     0.0140     -3.33      -4.42      0          0
16               C12              R10              1550.00    0.0140     -3.56      -4.47      0          0
INT              JC2              PS               1000.00    0.0140     -22.90     -27.50     0          0
22               C16              C7               560.00     0.0120     12.29      1.85       0          0
21               IO54             C7               1500.00    0.0140     5.22       1.85       0          0
201              C15              IO54             550.00     0.0140     6.74       5.22       0          0
19               IO54             C14              700.00     0          5.22       1.51       0          0
18               C14              C13              790.00     0          1.51       0.08       0          0
17               C13              C11              850.00     0          -0.08      -1.76      0          0
23               C17              C16              2450.00    0          31.43      14.49      0          0
27               C21              C20              350.00     0          54.29      52.10      0          0
26               C20              C19              720.00     0          52.10      44.05      0          0
25               C19              C18              1270.00    0          44.05      35.56      0          0
24               C18              C17              450.00     0          35.56      31.43      0          0
30               C24              C22              1830.00    0          19.94      13.58      0          0
28               C22              C15              1350.00    0          13.58      6.85       0          0
31               C25              C23              1820.00    0          14.08      11.27      0          0
29               C23              C15              1350.00    0          11.27      8.95       0          0
35               C29              C28              940.00     0          41.90      35.41      0          0
34               C28              C27              850.00     0          35.41      21.42      0          0
32               C27              C15              1150.00    0          21.42      9.36       0          0
33               C26              C15              900.00     0          13.51      9.73       0          0
42               C35              C34              500.00     0          55.93      51.88      0          0
41               C34              C33              810.00     0          51.88      32.15      0          0
40               C33              C32              770.00     0          32.15      27.00      0          0
39               C32              C31              600.00     0          27.00      24.87      0          0
38               C32              C30              1050.00    0          27.00      15.40      0          0
37               C30              C25              910.00     0          15.40      14.08      0          0
36               C31              C24              1380.00    0          24.87      19.94      0          0
75               C60              C59              750.00     0          70.05      67.02      0          0
74               C59              C58              550.00     0          67.02      57.19      0          0
72               C58              C64              800.00     0          57.19      54.07      0          0
73               C61              C58              370.00     0          64.05      57.19      0          0
71               C63              C62              640.00     0.0140     65.72      62.26      0          0
70               C62              C56              650.00     0          62.26      59.11      0          0
68               C56              C54              810.00     0          59.11      57.02      0          0
66               C54              C52              1150.00    0          57.02      53.29      0          0
69               C64              C57              600.00     0          54.07      52.38      0          0
67               C57              C55              780.00     0.0140     52.38      50.06      0          0
65               C55              C53              1300.00    0          50.06      45.73      0          0
64               C52              C50              1660.00    0          53.29      48.01      0          0
63               C53              C51              1640.00    0          45.73      40.08      0          0
198              C51              C50              150.00     0.0140     53.96      48.01      0          0
62               C50              C49              1040.00    0          48.01      37.74      0          0
61               C51              C49              930.00     0          40.80      37.74      0          0
60               C49              C48              1420.00    0          37.74      11.71      0          0
57               C47              CSO28A           1050.00    0.0140     20.53      10.13      0          0
59               C48              CSO28A           450.00     0.0140     11.71      10.07      0          0
28AOF            CSO28AW          CSO28W           650.00     0.0140     3.71       -3.15      0          0
HP24OF           CSO28W           HP24             500.00     0          -3.15      -7.98      0          0
51               C44              C43              1250.00    0          1.90       1.02       0          0
50               C43              C42              400.00     0          1.02       0.77       0          0
49               C42              C41              1100.00    0          0.77       0.05       0          0
48               C41              C40              850.00     0          0.05       -0.58      0          0
47               C40              C39              740.00     0          -0.58      -1.08      0          0
46               C39              C38              750.00     0          -1.08      -1.57      0          0
45               C38              C37              850.00     0          -1.57      -2.13      0          0
44               C37              C36              1260.00    0          -2.13      -2.93      0          0
43               C36              C12              1100.00    0          -2.93      -3.56      0          0
52               C45              C44              1430.00    0          2.94       1.92       0          0
53               C46              C45              1410.00    0          3.83       2.94       0          0
82               CSO25W           ILS1A            750.00     0          -1.64      -4.63      0          0
HP21OF           ILS1A            HP21             350.00     0          -4.63      -5.81      0          0
80               CSO25            C65              850.00     0.0140     -1.63      -2.03      0          0
81               C65              ILS1             1010.00    0          -2.03      -2.49      0          0
88               C94              C6               670.00     0          -5.40      -5.71      0          0
83               C90              CSO25            750.00     0          -1.29      -1.63      0          0
94               C71              C70              930.00     0          -0.01      -0.68      0          0
98               C74              C73              840.00     0          2.58       2.00       0          0
97               C73              C72              800.00     0          1.98       1.49       0          0
96               C72              CSO26            820.00     0          1.49       1.00       0          0
95               CSO26            C71              1300.00    0          1.00       -0.01      0          0
HP22OF           CSO26W           HP22             400.00     0          0.50       -3.30      0          0
93               C70              CSO25            1000.00    0          -0.68      -1.63      0          0
99               C75              C74              850.00     0          4.54       2.58       0          0
85               C92              C91              810.00     0          -0.58      -0.99      0          0
84               C91              C90              800.00     0          -0.99      -1.29      0          0
89               C95              C94              790.00     0          -5.00      -5.40      0          0
90               C96              C95              810.00     0          -4.55      -5.00      0          0
92               IO7              C97              800.00     0          -3.68      -4.10      0          0
91               C97              C96              810.00     0          -4.10      -4.55      0          0
87               IO7              C93              850.00     0          0.13       -0.23      0          0
86               C93              C92              800.00     0          -0.23      -0.58      0          0
104              I/O52            C81              1120.00    0          1.00       0.45       0          0
102              C81              IO7              780.00     0          0.45       0.13       0          0
100              C80              IO7              300.00     0          -3.50      -3.68      0          0
101              C82              C80              810.00     0          -3.10      -3.50      0          0
103              C84              C82              1100.00    0          -2.50      -3.10      0          0
108              C85              I/O52            850.00     0          1.75       1.00       0          0
107              C86              C84              820.00     0          4.50       0.97       0          0
110              C87              C85              1010.00    0          2.65       1.75       0          0
109              C86              C85              260.00     0          4.06       1.75       0          0
106              I/O52            C84              270.00     0          2.50       -2.50      0          0
182              C142             C141             1050.00    0          77.15      72.97      0          0
181              C141             C140             770.00     0          72.97      68.65      0          0
180              C140             C139             1290.00    0          68.65      64.28      0          0
179              C139             C138             550.00     0          64.28      61.20      0          0
178              C138             C137             1400.00    0          61.20      56.50      0          0
177              C137             C136             850.00     0.0140     56.50      54.56      0          0
176              C136             C135             1100.00    0          54.56      52.04      0          0
175              C135             C134             1050.00    0          52.04      49.66      0          0
174              C134             C133             2250.00    0          49.66      43.00      0          0
173              C133             C132             940.00     0          43.00      40.78      0          0
172              C132             C131             1180.00    0          40.78      37.60      0          0
171              C131             C130             2430.00    0          37.60      31.35      0          0
170              C130             C127             1350.00    0          31.35      27.60      0          0
159              C127             C126             1540.00    0          27.60      23.85      0          0
158              C125             IO12             700.00     0          64.00      46.50      0          0
157              IO12             C123             1300.00    0          46.58      35.00      0          0
156              C126             C124             1200.00    0          23.85      20.68      0          0
160              IO12             C126             70.00      0          47.45      23.85      0          0