;; SWMM5 .inp converted from XPSWMM .xp file
;; Generated by XPSWMM Card Reader
;; Source format: XP_CARD | Original title: BYSTRE LAKE WATERSHED STUDY--DAMES AND MOORE

[TITLE]
;;Project Title/Notes
BYSTRE LAKE WATERSHED STUDY--DAMES AND MOORE

[OPTIONS]
FLOW_UNITS           CFS
INFILTRATION         HORTON
FLOW_ROUTING         DYNWAVE
LINK_OFFSETS         DEPTH
MIN_SLOPE            0.0
ALLOW_PONDING        NO
SKIP_STEADY_STATE    NO
INERTIAL_DAMPING     PARTIAL
NORMAL_FLOW_LIMITED  BOTH

[JUNCTIONS]
;;Name           Elev       MaxDepth   InitDepth  SurDepth   Aponded
;;-------------- ---------- ---------- ---------- ---------- ----------
101              0          0          0          0          0
102              0          0          0          0          0
103              0          0          0          0          0
104              0          0          0          0          0
105              0          0          0          0          0
107              0          0          0          0          0
108              0          0          0          0          0
10802            0          0          0          0          0
110              0          0          0          0          0
111              0          0          0          0          0
112              0          0          0          0          0
113              0          0          0          0          0
114              0          0          0          0          0
115              0          0          0          0          0
116              0          0          0          0          0
12202            0          0          0          0          0
11809            0          0          0          0          0
120              0          0          0          0          0
121              0          0          0          0          0
10901            0          0          0          0          0
123              0          0          0          0          0
124              0          0          0          0          0
201              0          0          0          0          0
202              0          0          0          0          0
203              0          0          0          0          0
204              0          0          0          0          0
205              0          0          0          0          0
206              0          0          0          0          0
207              0          0          0          0          0
208              0          0          0          0          0
209              0          0          0          0          0
210              0          0          0          0          0
211              0          0          0          0          0
301              0          0          0          0          0
302              0          0          0          0          0
303              0          0          0          0          0
304              0          0          0          0          0
305              0          0          0          0          0
306              0          0          0          0          0
307              0          0          0          0          0
401              0          0          0          0          0
402              0          0          0          0          0
403              0          0          0          0          0
404              0          0          0          0          0
405              0          0          0          0          0
406              0          0          0          0          0
407              0          0          0          0          0
408              0          0          0          0          0
409              0          0          0          0          0
410              0          0          0          0          0
411              0          0          0          0          0
501              0          0          0          0          0
502              0          0          0          0          0
503              0          0          0          0          0
504              0          0          0          0          0
505              0          0          0          0          0
506              0          0          0          0          0
507              0          0          0          0          0
508              0          0          0          0          0
509              0          0          0          0          0
510              0          0          0          0          0
601              0          0          0          0          0
602              0          0          0          0          0
603              0          0          0          0          0
604              0          0          0          0          0
605              0          0          0          0          0
606              0          0          0          0          0
607              0          0          0          0          0
608              0          0          0          0          0
609              0          0          0          0          0
610              0          0          0          0          0
611              0          0          0          0          0
701              0          0          0          0          0
702              0          0          0          0          0
703              0          0          0          0          0
704              0          0          0          0          0
705              0          0          0          0          0
706              0          0          0          0          0
707              0          0          0          0          0
708              0          0          0          0          0
709              0          0          0          0          0
710              0          0          0          0          0
711              0          0          0          0          0
712              0          0          0          0          0

[COORDINATES]
;;Node           X-Coord            Y-Coord
;;-------------- ------------------ ------------------
101              337.58             -8.17             
102              354.34             -5.63             
103              378.68             -0.46             
104              393.19             -3.56             
105              415.16             2.68              
107              433.68             -5.88             
108              458.24             1.20              
10802            484.82             -4.17             
110              340.21             13.02             
111              362.83             13.76             
112              379.13             24.87             
113              404.96             13.39             
114              420.03             11.94             
115              437.48             18.84             
116              457.00             19.76             
12202            476.27             14.01             
11809            340.37             37.77             
120              357.00             32.57             
121              374.42             42.16             
10901            401.03             38.68             
123              415.43             43.38             
124              432.80             44.44             
201              463.14             38.94             
202              481.91             37.92             
203              342.25             63.20             
204              353.88             62.11             
205              371.82             64.98             
206              399.84             59.89             
207              421.09             55.33             
208              444.70             62.91             
209              463.79             56.78             
210              484.28             60.76             
211              332.89             71.93             
301              361.42             75.46             
302              375.89             79.58             
303              395.43             82.87             
304              422.31             78.22             
305              438.83             81.63             
306              452.49             77.86             
307              483.59             81.64             
401              339.93             99.72             
402              356.98             101.52            
403              380.25             99.37             
404              402.05             93.82             
405              414.42             97.43             
406              431.95             98.64             
407              460.46             101.74            
408              476.34             94.05             
409              344.18             118.31            
410              358.35             121.05            
411              372.48             113.76            
501              393.07             113.69            
502              421.02             120.96            
503              444.09             117.45            
504              456.00             124.58            
505              473.44             113.84            
506              337.33             142.66            
507              362.67             134.34            
508              378.74             142.60            
509              398.37             133.87            
510              419.66             141.48            
601              437.51             135.51            
602              455.04             140.82            
603              478.74             141.35            
604              340.16             153.44            
605              364.55             162.84            
606              376.27             158.64            
607              403.64             157.44            
608              412.86             164.35            
609              440.45             159.07            
610              460.07             158.04            
611              480.83             163.00            
701              341.43             177.84            
702              361.09             184.79            
703              377.53             181.57            
704              394.97             174.40            
705              419.77             182.90            
706              433.27             178.43            
707              451.89             172.18            
708              484.35             179.38            
709              342.46             198.83            
710              356.74             202.95            
711              382.41             200.50            
712              403.39             202.93            

[MAP]
DIMENSIONS 332.89 -8.17 484.82 202.95
Units      None

[REPORT]
INPUT            YES
SUBCATCHMENTS    ALL
NODES            ALL
LINKS            ALL



