;; SWMM5 .inp converted from XPSWMM .xp file
;; Generated by XPSWMM Card Reader
;; Source format: XP_CARD | Original title: Fairchild System - 10 year design storm

[TITLE]
;;Project Title/Notes
Fairchild System - 10 year design storm

[OPTIONS]
FLOW_UNITS           CFS
INFILTRATION         HORTON
FLOW_ROUTING         DYNWAVE
LINK_OFFSETS         DEPTH
MIN_SLOPE            0.0
ALLOW_PONDING        NO
SKIP_STEADY_STATE    NO
ROUTING_STEP         00:00:30
VARIABLE_STEP        0.75
INERTIAL_DAMPING     PARTIAL
NORMAL_FLOW_LIMITED  BOTH
MAX_TRIALS           100
HEAD_TOLERANCE       0.0033

[JUNCTIONS]
;;Name           Elev       MaxDepth   InitDepth  SurDepth   Aponded
;;-------------- ---------- ---------- ---------- ---------- ----------
26620267         876.63     0          0          0          0
26620158         876.87     0          0          0          0
26620268         875.78     0          0          0          0
26620156         875.85     0          0          0          0
26620152         876.43     0          0          0          0
26620151         876.21     0          0          0          0
Outfall          870.00     0          0          0          0
25130127         874.89     0          0          0          0
25130006         875.73     0          0          0          0
25130008         877.99     0          0          0          0
25130009         875.49     0          0          0          0
25130010         876.55     0          0          0          0
25130018         876.15     0          0          0          0
26620123         877.53     0          0          0          0
26620168         877.55     0          0          0          0
26620200         877.68     0          0          0          0
26620209         878.87     0          0          0          0
26620237         878.83     0          0          0          0
26620249         883.56     0          0          0          0
26620185         877.33     0          0          0          0
26620189         876.71     0          0          0          0
26620173         876.67     0          0          0          0
26620198         876.15     0          0          0          0
26610052         877.70     0          0          0          0
26620269         876.45     0          0          0          0
26620162         876.45     0          0          0          0

[CONDUITS]
;;Name           From             To               Length     Roughness  InOffset   OutOffset  InitFlow   MaxFlow
;;-------------- ---------------- ---------------- ---------- ---------- ---------- ---------- ---------- ----------
pipe151          street151        26620152         62.00      0.0150     865.10     864.90     0          0
pipe156          street156        26620158         193.00     0.0150     869.88     869.08     0          0
pipe152b         street152b       26620268         188.00     0.0150     864.80     864.00     0          0
pipe268          street268        26620267         193.00     0.0150     864.00     863.20     0          0
345.1            25130010         25130006         409.00     0.0120     864.40     861.07     0          0
pipe09           street09         25130008         525.00     0.0120     860.68     859.59     0          0
25131008         25130008         25130006         491.00     0.0120     859.59     858.57     0          0
25131006         25130006         Outfall          803.00     0.0120     858.57     856.90     0          0
25131127         25130127         25130006         424.00     0.0120     866.25     862.57     0          0
pipe18           street18         25130009         498.00     0.0120     861.72     860.68     0          0
pipe158          street158        26620267         38.00      0.0120     868.90     868.14     0          0
pipe267          street267        26620269         59.00      0.0120     863.10     862.80     0          0
pipe123          street123        26620168         239.00     0.0120     865.48     865.19     0          0
pipe168          street168        26620185         180.00     0.0120     865.19     864.63     0          0
pipe185          street185        26620189         217.00     0.0120     864.63     863.95     0          0
pipe152          street152        26620198         237.00     0.0120     866.99     866.16     0          0
pipe198          street198        26620189         627.00     0.0120     866.16     863.95     0          0
pipe189          street189        26620173         220.00     0.0120     863.95     863.26     0          0
pipe173          street173        26620162         170.00     0.0120     863.26     862.73     0          0
pipe249          street249        26620237         291.00     0.0150     873.26     872.73     0          0
pipe209          street209        26620200         257.00     0.0120     868.37     867.13     0          0
pipe200          street200        26620168         238.00     0.0120     867.08     865.77     0          0
pipe237          street237        26620209         233.00     0.0150     872.43     871.64     0          0
pipe269          street269        25130018         424.00     0.0120     862.60     861.72     0          0
pipe162          street162        26620269         43.00      0.0120     862.73     862.60     0          0

[XSECTIONS]
;;Link           Shape        Geom1      Geom2      Geom3      Geom4      Barrels
;;-------------- ------------ ---------- ---------- ---------- ---------- ----------
pipe151          CIRCULAR     2.50       0          0          0          1
pipe156          CIRCULAR     1.25       0          0          0          1
pipe152b         CIRCULAR     2.50       0          0          0          1
pipe268          CIRCULAR     2.50       0          0          0          1
345.1            CIRCULAR     4.50       0          0          0          1
pipe09           RECT_CLOSED  6.00       6.00       0          0          1
25131008         RECT_CLOSED  7.00       7.00       0          0          1
25131006         RECT_CLOSED  7.00       7.00       0          0          1
25131127         CIRCULAR     3.00       0          0          0          1
pipe18           RECT_CLOSED  6.00       6.00       0          0          1
pipe158          CIRCULAR     2.00       0          0          0          1
pipe267          CIRCULAR     3.00       0          0          0          1
pipe123          CIRCULAR     4.75       6.00       0          0          1
pipe168          RECT_CLOSED  6.00       6.00       0          0          1
pipe185          RECT_CLOSED  6.00       6.00       0          0          1
pipe152          RECT_CLOSED  6.00       6.00       0          0          1
pipe198          RECT_CLOSED  6.00       6.00       0          0          1
pipe189          RECT_CLOSED  6.00       6.00       0          0          1
pipe173          RECT_CLOSED  6.00       6.00       0          0          1
pipe249          CIRCULAR     2.00       0          0          0          1
pipe209          CIRCULAR     4.00       0          0          0          1
pipe200          CIRCULAR     4.00       0          0          0          1
pipe237          CIRCULAR     2.00       0          0          0          1
pipe269          RECT_CLOSED  6.00       6.00       0          0          1
pipe162          RECT_CLOSED  6.00       6.00       0          0          1

[LOSSES]
;;Link           Inlet      Outlet     Average    Flap Gate
;;-------------- ---------- ---------- ---------- ----------
pipe151          0          0          0          NO
pipe156          0          0          0          NO
pipe152b         0          0          0          NO
pipe268          0          0          0          NO
345.1            0          0          0          NO
pipe09           0          0          0          NO
25131008         0          0          0          NO
25131006         0          0          0          NO
25131127         0          0          0          NO
pipe18           0          0          0          NO
pipe158          0          0          0          NO
pipe267          0          0          0          NO
pipe123          0          0          0          NO
pipe168          0          0          0          NO
pipe185          0          0          0          NO
pipe152          0          0          0          NO
pipe198          0          0          0          NO
pipe189          0          0          0          NO
pipe173          0          0          0          NO
pipe249          0          0          0          NO
pipe209          0          0          0          NO
pipe200          0          0          0          NO
pipe237          0          0          0          NO
pipe269          0          0          0          NO
pipe162          0          0          0          NO

[COORDINATES]
;;Node           X-Coord            Y-Coord
;;-------------- ------------------ ------------------
26620267         -276690.92         1976071.03        
26620158         -276725.01         1976072.87        
26620268         -276720.14         1975893.99        
26620156         -276760.35         1975904.17        
26620152         -276774.83         1975680.95        
26620151         -276844.89         1975710.02        
Outfall          -278822.74         1977182.51        
25130127         -278177.21         1976517.65        
25130006         -278054.00         1976935.99        
25130008         -277579.45         1976790.16        
25130009         -277081.85         1976634.17        
25130010         -277912.19         1977300.98        
25130018         -276646.66         1976504.99        
26620123         -276400.20         1975330.86        
26620168         -276336.83         1975601.49        
26620200         -276100.49         1975517.80        
26620209         -275868.85         1975425.09        
26620237         -275634.62         1975358.67        
26620249         -275351.99         1975288.80        
26620185         -276287.89         1975768.01        
26620189         -276232.88         1975992.65        
26620173         -276443.19         1976043.50        
26620198         -276042.37         1976575.87        
26610052         -275973.84         1976769.42        
26620269         -276637.13         1976156.70        
26620162         -276605.86         1976093.09        

[MAP]
DIMENSIONS -278822.74 1975288.80 -275351.99 1977300.98
Units      None

[REPORT]
INPUT            YES
SUBCATCHMENTS    ALL
NODES            ALL
LINKS            ALL



