;; SWMM5 .inp converted from XPSWMM .xp file
;; Generated by XPSWMM Card Reader
;; Source format: XP_CARD | Original title: Test xp_swmm input file from Lynx

[TITLE]
;;Project Title/Notes
Test xp_swmm input file from Lynx

[OPTIONS]
FLOW_UNITS           CFS
INFILTRATION         HORTON
FLOW_ROUTING         DYNWAVE
LINK_OFFSETS         DEPTH
MIN_SLOPE            0.0
ALLOW_PONDING        NO
SKIP_STEADY_STATE    NO
ROUTING_STEP         00:00:60
VARIABLE_STEP        0.75
INERTIAL_DAMPING     PARTIAL
NORMAL_FLOW_LIMITED  BOTH

[JUNCTIONS]
;;Name           Elev       MaxDepth   InitDepth  SurDepth   Aponded
;;-------------- ---------- ---------- ---------- ---------- ----------
30-462019        158.60     0          0          0          0
33-460006        188.54     0          0          0          0
33-460007        182.46     0          0          0          0
33-460008        181.48     0          0          0          0
33-460009        186.45     0          0          0          0
33-460010        197.75     0          0          0          0
33-460011        204.03     0          0          0          0
33-460012        212.81     0          0          0          0
33-462002        154.32     0          0          0          0
33-462003        152.34     0          0          0          0
33-462004        151.98     0          0          0          0
33-462005        151.78     0          0          0          0
33-462006        156.31     0          0          0          0
33-462007        157.25     0          0          0          0
33-462015        164.48     0          0          0          0
33-462016        172.81     0          0          0          0
33-462029        181.40     0          0          0          0
33-464004        150.69     0          0          0          0
33-464009        143.02     0          0          0          0
33-464011        140.50     0          0          0          0
33-464012        150.04     0          0          0          0
33-464014        138.72     0          0          0          0
33-464016        137.76     0          0          0          0
33-464017        138.62     0          0          0          0
33-464018        138.53     0          0          0          0
33-464053        151.37     0          0          0          0
36-450013        461.63     0          0          0          0
36-450014        458.47     0          0          0          0
36-450026        456.96     0          0          0          0
36-450027        452.72     0          0          0          0
36-450028        449.24     0          0          0          0
36-454002        461.82     0          0          0          0
36-454029        455.52     0          0          0          0
36-454030        449.92     0          0          0          0
36-454031        447.82     0          0          0          0
36-454034        448.63     0          0          0          0
36-454035        443.82     0          0          0          0
36-454055        440.97     0          0          0          0
36-454056        440.00     0          0          0          0
36-454058        437.26     0          0          0          0
36-454060        435.42     0          0          0          0
36-454062        432.42     0          0          0          0
36-454077        456.62     0          0          0          0
36-454078        440.12     0          0          0          0
36-454079        439.79     0          0          0          0
36-454080        453.01     0          0          0          0
36-454081        448.53     0          0          0          0
36-456015        470.22     0          0          0          0
36-464001        137.51     0          0          0          0
36-466001        135.34     0          0          0          0
36-466002        136.42     0          0          0          0
36-466003        136.90     0          0          0          0
36-466004        145.96     0          0          0          0
36-466005        147.02     0          0          0          0
36-466006        146.06     0          0          0          0
36-466007        135.55     0          0          0          0
36-466009        140.07     0          0          0          0
36-466010        146.76     0          0          0          0
36-466014        150.86     0          0          0          0
36-466051        139.02     0          0          0          0
36-466052        146.97     0          0          0          0
36-468001        151.26     0          0          0          0
36-468002        142.80     0          0          0          0
36-468003        137.25     0          0          0          0
36-468004        133.38     0          0          0          0
39-450001        439.71     0          0          0          0
39-450003        438.60     0          0          0          0
39-450004        432.91     0          0          0          0
39-450005        429.56     0          0          0          0
39-450006        431.59     0          0          0          0
39-450007        429.26     0          0          0          0
39-450010        427.89     0          0          0          0
39-450018        421.76     0          0          0          0
39-450019        417.47     0          0          0          0
39-450030        417.80     0          0          0          0
39-450037        417.00     0          0          0          0
39-450038        416.03     0          0          0          0
39-450048        425.26     0          0          0          0
39-450049        423.54     0          0          0          0
39-450066        432.69     0          0          0          0
39-450069        438.81     0          0          0          0
39-454003        428.12     0          0          0          0
39-454011        423.72     0          0          0          0
39-454019        420.02     0          0          0          0
39-454039        418.22     0          0          0          0
39-454040        408.28     0          0          0          0
39-454041        408.12     0          0          0          0
39-454046        410.12     0          0          0          0
39-454047        412.92     0          0          0          0
39-454073        402.22     0          0          0          0
39-454074        392.47     0          0          0          0
39-454075        385.78     0          0          0          0
39-454092        379.62     0          0          0          0
39-454093        375.72     0          0          0          0
39-454100        385.56     0          0          0          0
39-460009        383.46     0          0          0          0
39-460012        380.42     0          0          0          0
39-460014        372.92     0          0          0          0
39-460031        359.05     0          0          0          0
39-460033        362.20     0          0          0          0
39-460035        370.52     0          0          0          0
39-460050        356.32     0          0          0          0
39-460060        345.72     0          0          0          0
39-460061        349.17     0          0          0          0
39-460062        350.32     0          0          0          0
39-460063        355.61     0          0          0          0
39-460072        351.26     0          0          0          0
39-460073        350.32     0          0          0          0
39-460074        336.92     0          0          0          0
39-460075        327.12     0          0          0          0
39-460077        308.32     0          0          0          0
39-460085        298.32     0          0          0          0
39-460107        359.14     0          0          0          0
39-460111        318.02     0          0          0          0
39-460114        301.28     0          0          0          0
39-460115        301.32     0          0          0          0
39-460118        306.49     0          0          0          0
39-460119        306.69     0          0          0          0
39-460120        307.35     0          0          0          0
39-462101        305.96     0          0          0          0
39-462111        304.27     0          0          0          0
39-462113        300.79     0          0          0          0
39-462114        300.64     0          0          0          0
39-462115        302.90     0          0          0          0
39-462117        302.32     0          0          0          0
39-466051        300.23     0          0          0          0
39-466059        295.95     0          0          0          0
39-466060        325.17     0          0          0          0
39-466075        291.36     0          0          0          0
39-466076        286.06     0          0          0          0
39-466077        276.50     0          0          0          0
39-468001        134.81     0          0          0          0
39-468002        131.45     0          0          0          0
39-468003        141.47     0          0          0          0
39-470001        131.90     0          0          0          0
39-470002        132.19     0          0          0          0
39-470003        134.88     0          0          0          0
39-470005        138.30     0          0          0          0
39-470006        129.07     0          0          0          0
39-470007        130.17     0          0          0          0
39-470009        133.72     0          0          0          0
39-470010        134.34     0          0          0          0
39-470047        168.25     0          0          0          0
39-470048        171.33     0          0          0          0
39-470056        168.08     0          0          0          0
39-470065        172.41     0          0          0          0
39-470081        178.00     0          0          0          0
39-470092        165.77     0          0          0          0
39-470093        171.31     0          0          0          0
39-472005        138.68     0          0          0          0
39-472006        134.22     0          0          0          0
39-472020        168.57     0          0          0          0
39-496012        135.03     0          0          0          0
39-496020        132.31     0          0          0          0
39-496028        131.59     0          0          0          0
39-496029        127.73     0          0          0          0
39-496030        129.24     0          0          0          0
39-496031        129.37     0          0          0          0
39-496032        129.37     0          0          0          0
39-498001        124.47     0          0          0          0
39-498002        124.87     0          0          0          0
39-498004        126.99     0          0          0          0
39-498008        124.43     0          0          0          0
42-446012        402.58     0          0          0          0
42-446014        396.00     0          0          0          0
42-446015        396.78     0          0          0          0
42-446016        403.47     0          0          0          0
42-446017        424.23     0          0          0          0
42-446020        386.49     0          0          0          0
42-446034        392.17     0          0          0          0
42-446046        396.00     0          0          0          0
42-446070        401.43     0          0          0          0
42-450010        408.20     0          0          0          0
42-450011        409.72     0          0          0          0
42-450021        408.18     0          0          0          0
42-450032        408.34     0          0          0          0
42-450035        402.63     0          0          0          0
42-450044        400.51     0          0          0          0
42-450060        400.47     0          0          0          0
42-450063        399.31     0          0          0          0
42-450080        397.80     0          0          0          0
42-452034        422.01     0          0          0          0
42-456005        373.08     0          0          0          0
42-456006        366.92     0          0          0          0
42-456007        367.42     0          0          0          0
42-456015        362.72     0          0          0          0
42-456018        356.82     0          0          0          0
42-456019        357.02     0          0          0          0
42-456020        354.00     0          0          0          0
42-456022        354.36     0          0          0          0
42-456023        354.20     0          0          0          0
42-456024        355.68     0          0          0          0
42-456025        353.49     0          0          0          0
42-456026        342.97     0          0          0          0
42-456027        338.07     0          0          0          0
42-456028        332.63     0          0          0          0
42-456029        329.85     0          0          0          0
42-456091        368.34     0          0          0          0
42-456092        358.59     0          0          0          0
42-456093        353.66     0          0          0          0
42-456094        350.07     0          0          0          0
42-458019        327.12     0          0          0          0
42-458020        324.40     0          0          0          0
42-458022        320.98     0          0          0          0
42-458025        314.88     0          0          0          0
42-458026        305.26     0          0          0          0
42-458046        282.96     0          0          0          0
42-458049        285.71     0          0          0          0
42-458050        286.98     0          0          0          0
42-458051        295.93     0          0          0          0
42-458066        277.25     0          0          0          0
42-458067        270.48     0          0          0          0
42-458090        330.79     0          0          0          0
42-458091        267.81     0          0          0          0
42-458092        264.24     0          0          0          0
42-462008        276.61     0          0          0          0
42-462009        266.58     0          0          0          0
42-462010        265.22     0          0          0          0
42-462011        264.22     0          0          0          0
42-462015        251.32     0          0          0          0
42-462016        256.92     0          0          0          0
42-462017        258.72     0          0          0          0
42-462018        259.35     0          0          0          0
42-462019        265.16     0          0          0          0
42-462037        243.02     0          0          0          0
42-462038        243.42     0          0          0          0
42-462108        304.08     0          0          0          0
42-464044        246.69     0          0          0          0
42-464045        238.32     0          0          0          0
42-464065        228.95     0          0          0          0
42-464066        234.62     0          0          0          0
42-464069        223.75     0          0          0          0
42-464070        221.92     0          0          0          0
42-464073        216.42     0          0          0          0
42-464085        195.72     0          0          0          0
42-464088        203.82     0          0          0          0
42-464094        201.92     0          0          0          0
42-464096        215.25     0          0          0          0
42-464099        196.48     0          0          0          0
42-464102        204.61     0          0          0          0
42-466005        269.63     0          0          0          0
42-466012        257.32     0          0          0          0
42-466025        251.70     0          0          0          0
42-466037        236.97     0          0          0          0
42-466038        239.42     0          0          0          0
42-466052        215.86     0          0          0          0
42-466053        216.42     0          0          0          0
42-466065        215.62     0          0          0          0
42-466066        206.55     0          0          0          0
42-466067        177.22     0          0          0          0
42-466075        173.61     0          0          0          0
42-466081        175.04     0          0          0          0
42-466082        174.42     0          0          0          0
42-466083        174.34     0          0          0          0
42-466084        172.79     0          0          0          0
42-466085        171.62     0          0          0          0
42-466086        171.30     0          0          0          0
42-466087        170.37     0          0          0          0
42-466088        170.52     0          0          0          0
42-466089        170.47     0          0          0          0
42-466106        176.52     0          0          0          0
42-466107        176.02     0          0          0          0
42-466110        175.72     0          0          0          0
42-466111        180.32     0          0          0          0
42-466112        186.72     0          0          0          0
42-466117        176.36     0          0          0          0
42-466119        244.29     0          0          0          0
42-466120        231.48     0          0          0          0
42-466121        169.56     0          0          0          0
42-466122        325.17     0          0          0          0
42-468056        163.76     0          0          0          0
42-468057        163.32     0          0          0          0
42-468058        163.37     0          0          0          0
42-468060        164.17     0          0          0          0
42-468063        163.84     0          0          0          0
42-468065        165.56     0          0          0          0
42-468066        168.20     0          0          0          0
42-468067        168.30     0          0          0          0
42-468076        163.62     0          0          0          0
42-468080        163.02     0          0          0          0
42-468081        164.12     0          0          0          0
42-468082        163.12     0          0          0          0
42-468083        163.80     0          0          0          0
42-468084        163.42     0          0          0          0
42-468085        161.96     0          0          0          0
42-468087        162.72     0          0          0          0
42-468088        162.43     0          0          0          0
42-468091        162.74     0          0          0          0
42-468092        162.75     0          0          0          0
42-468093        164.10     0          0          0          0
42-468095        163.16     0          0          0          0
42-468096        166.42     0          0          0          0
42-468097        165.97     0          0          0          0
42-468101        169.44     0          0          0          0
42-468102        169.92     0          0          0          0
42-468106        162.89     0          0          0          0
42-468107        162.95     0          0          0          0
42-468112        164.16     0          0          0          0
42-468126        167.52     0          0          0          0
42-468127        163.29     0          0          0          0
42-470001        167.40     0          0          0          0
42-470002        171.96     0          0          0          0
42-470003        162.82     0          0          0          0
42-470004        162.88     0          0          0          0
42-470005        167.75     0          0          0          0
42-470010        157.88     0          0          0          0
42-470012        156.92     0          0          0          0
42-470014        157.25     0          0          0          0
42-470015        155.06     0          0          0          0
42-470017        155.92     0          0          0          0
42-470018        155.52     0          0          0          0
42-470019        155.12     0          0          0          0
42-470021        151.62     0          0          0          0
42-470022        158.81     0          0          0          0
42-470023        157.82     0          0          0          0
42-470024        160.31     0          0          0          0
42-470025        162.25     0          0          0          0
42-470026        162.02     0          0          0          0
42-470027        162.60     0          0          0          0
42-470028        162.52     0          0          0          0
42-470033        157.18     0          0          0          0
42-470034        156.14     0          0          0          0
42-470036        157.46     0          0          0          0
42-470037        156.96     0          0          0          0
42-470041        158.49     0          0          0          0
42-470042        158.46     0          0          0          0
42-470050        157.29     0          0          0          0
42-470052        162.02     0          0          0          0
42-470053        165.26     0          0          0          0
42-470054        170.88     0          0          0          0
42-470059        156.96     0          0          0          0
42-472031        150.62     0          0          0          0
42-472032        150.42     0          0          0          0
42-472033        148.52     0          0          0          0
42-472034        150.25     0          0          0          0
42-472035        148.32     0          0          0          0
42-472038        147.50     0          0          0          0
42-472039        146.62     0          0          0          0
42-472040        133.22     0          0          0          0
42-472042        145.49     0          0          0          0
42-472043        146.22     0          0          0          0
42-472044        145.92     0          0          0          0
42-472052        144.47     0          0          0          0
42-472053        148.82     0          0          0          0
42-472055        151.58     0          0          0          0
42-472057        149.30     0          0          0          0
42-472060        152.02     0          0          0          0
42-472074        141.72     0          0          0          0
42-472075        139.33     0          0          0          0
42-472080        147.24     0          0          0          0
42-472081        147.00     0          0          0          0
42-472082        148.18     0          0          0          0
42-472084        140.89     0          0          0          0
42-472085        142.07     0          0          0          0
42-472086        146.69     0          0          0          0
42-472088        145.36     0          0          0          0
42-472089        145.90     0          0          0          0
42-472090        143.40     0          0          0          0
42-472113        149.85     0          0          0          0
42-472114        154.94     0          0          0          0
42-472116        325.17     0          0          0          0
42-472118        152.26     0          0          0          0
42-472119        152.27     0          0          0          0
42-472120        152.69     0          0          0          0
42-472121        153.89     0          0          0          0
42-472122        155.37     0          0          0          0
42-472123        155.42     0          0          0          0
42-472124        155.34     0          0          0          0
42-472125        155.87     0          0          0          0
42-472126        148.98     0          0          0          0
42-472127        151.60     0          0          0          0
42-472132        143.24     0          0          0          0
42-474005        156.05     0          0          0          0
42-474006        157.63     0          0          0          0
42-474007        156.60     0          0          0          0
42-474008        156.23     0          0          0          0
42-474009        156.22     0          0          0          0
42-474010        156.04     0          0          0          0
42-474013        156.70     0          0          0          0
42-474019        156.58     0          0          0          0
42-474027        155.97     0          0          0          0
42-474031        157.30     0          0          0          0
42-474033        154.99     0          0          0          0
42-474036        153.40     0          0          0          0
42-474037        149.68     0          0          0          0
42-474041        154.59     0          0          0          0
42-474048        150.80     0          0          0          0
42-474050        149.02     0          0          0          0
42-474051        148.87     0          0          0          0
42-474052        148.63     0          0          0          0
42-474053        148.67     0          0          0          0
42-474054        148.84     0          0          0          0
42-474055        150.48     0          0          0          0
42-474056        150.52     0          0          0          0
42-474057        150.66     0          0          0          0
42-474061        151.63     0          0          0          0
42-474062        151.61     0          0          0          0
42-474063        151.52     0          0          0          0
42-474065        153.17     0          0          0          0
42-474066        152.52     0          0          0          0
42-474067        152.56     0          0          0          0
42-474068        152.35     0          0          0          0
42-474069        152.35     0          0          0          0
42-474070        153.67     0          0          0          0
42-474071        153.72     0          0          0          0
42-474077        147.13     0          0          0          0
42-474078        146.94     0          0          0          0
42-474081        152.90     0          0          0          0
42-474083        153.24     0          0          0          0
42-474086        152.10     0          0          0          0
42-474089        152.37     0          0          0          0
42-474091        151.18     0          0          0          0
42-474093        155.85     0          0          0          0
42-474096        153.94     0          0          0          0
42-474097        154.17     0          0          0          0
42-474100        156.39     0          0          0          0
42-474101        156.47     0          0          0          0
42-474105        150.49     0          0          0          0
42-476003        153.44     0          0          0          0
42-476004        153.91     0          0          0          0
42-476005        152.47     0          0          0          0
42-476006        154.96     0          0          0          0
42-476007        154.60     0          0          0          0
42-476008        155.22     0          0          0          0
42-476009        154.29     0          0          0          0
42-476010        153.51     0          0          0          0
42-476011        151.83     0          0          0          0
42-476012        152.06     0          0          0          0
42-476013        152.64     0          0          0          0
42-476020        153.70     0          0          0          0
42-476021        149.96     0          0          0          0
42-476023        151.35     0          0          0          0
42-476039        150.01     0          0          0          0
42-476041        152.38     0          0          0          0
42-476043        153.13     0          0          0          0
42-476044        152.74     0          0          0          0
42-476046        150.97     0          0          0          0
42-476072        148.42     0          0          0          0
42-476074        149.44     0          0          0          0
42-476075        149.61     0          0          0          0
42-476076        149.22     0          0          0          0
42-476077        149.12     0          0          0          0
42-476078        151.23     0          0          0          0
42-476082        151.47     0          0          0          0
42-476084        154.08     0          0          0          0
42-476087        149.36     0          0          0          0
42-476091        152.63     0          0          0          0
42-476095        152.87     0          0          0          0
42-478004        146.64     0          0          0          0
42-478005        145.96     0          0          0          0
42-478015        149.23     0          0          0          0
42-478016        147.26     0          0          0          0
42-478020        151.41     0          0          0          0
42-478037        151.83     0          0          0          0
42-478038        151.61     0          0          0          0
42-478044        147.49     0          0          0          0
42-478059        151.61     0          0          0          0
42-478061        150.70     0          0          0          0
42-478062        150.90     0          0          0          0
42-478063        151.41     0          0          0          0
42-478064        150.14     0          0          0          0
42-478065        149.97     0          0          0          0
42-478066        145.71     0          0          0          0
42-478068        146.60     0          0          0          0
42-480016        157.45     0          0          0          0