;; SWMM5 .inp converted from XPSWMM .xp file
;; Generated by XPSWMM Card Reader
;; Source format: XP_CARD | Original title: Henrico EXTRAN Model - Gambles Mill

[TITLE]
;;Project Title/Notes
Henrico EXTRAN Model - Gambles Mill

[OPTIONS]
FLOW_UNITS           CFS
INFILTRATION         HORTON
FLOW_ROUTING         DYNWAVE
LINK_OFFSETS         DEPTH
MIN_SLOPE            0.0
ALLOW_PONDING        NO
SKIP_STEADY_STATE    NO
ROUTING_STEP         00:00:03
VARIABLE_STEP        0.75
INERTIAL_DAMPING     NONE
NORMAL_FLOW_LIMITED  BOTH
MAX_TRIALS           50

[JUNCTIONS]
;;Name           Elev       MaxDepth   InitDepth  SurDepth   Aponded
;;-------------- ---------- ---------- ---------- ---------- ----------
098NW016         122.00     0          0          0          0
098NW017         120.16     0          0          0          0
098NW018         119.67     0          0          0          0
098NW019         120.28     0          0          0          0
098NW020         120.26     0          0          0          0
098NW021         114.25     0          0          0          0
098NW022         122.16     0          0          0          0
098NW023         126.80     0          0          0          0
OVERFLOW         126.00     0          0          0          0
098NW026         122.62     0          0          0          0
098NW027         123.00     0          0          0          0
098NW028         125.50     0          0          0          0
098NW040         122.00     0          0          0          0
098NW041         126.20     0          0          0          0
098NW042         124.00     0          0          0          0
098NW043         122.73     0          0          0          0
098NW044         121.36     0          0          0          0
098NW045         121.16     0          0          0          0
098NW046         121.60     0          0          0          0
098SW001         124.75     0          0          0          0
098SW002         124.75     0          0          0          0
098SW004         114.61     0          0          0          0
098SW007         115.50     0          0          0          0
098SW010         123.89     0          0          0          0
098SW014         130.32     0          0          0          0
098SW018         116.24     0          0          0          0
098SW021         118.32     0          0          0          0
098SW023         135.09     0          0          0          0
098SW025         116.22     0          0          0          0
099SW001         133.20     0          0          0          0
099SW002         132.44     0          0          0          0
099SW003         129.46     0          0          0          0
099SW004         122.87     0          0          0          0
099SW005         122.16     0          0          0          0
099SW006         121.23     0          0          0          0
099SW007         124.50     0          0          0          0
099SW008         124.06     0          0          0          0
099SW009         125.00     0          0          0          0
141SE001         120.30     0          0          0          0
141SE004         118.11     0          0          0          0
141SE005         120.17     0          0          0          0
141SE006         124.78     0          0          0          0
141SE007         123.26     0          0          0          0
141SE008         123.05     0          0          0          0
141SE009         122.17     0          0          0          0
141SE010         122.77     0          0          0          0
141SE011         124.99     0          0          0          0
141SE012         123.13     0          0          0          0
141SE013         120.46     0          0          0          0
141SE014         127.26     0          0          0          0
141SE017         117.77     0          0          0          0
141SE018         119.90     0          0          0          0
141SE019         123.01     0          0          0          0
141SE020         123.69     0          0          0          0
141SE021         120.66     0          0          0          0
141SE022         117.51     0          0          0          0
141SW017         117.74     0          0          0          0
141SW018         119.81     0          0          0          0
141SW019         119.80     0          0          0          0
141SW020         117.00     0          0          0          0
141SW021         117.40     0          0          0          0
141SW022         120.15     0          0          0          0
141SW023         118.13     0          0          0          0
141SW024         120.88     0          0          0          0
141SW025         122.81     0          0          0          0
141SW026         120.82     0          0          0          0
141SW027         122.47     0          0          0          0
141SW028         121.61     0          0          0          0
141SW029         120.22     0          0          0          0
141SW030         120.31     0          0          0          0
141SW031         123.19     0          0          0          0
141SW032         122.07     0          0          0          0
142NE001         170.20     0          0          0          0
142NE006         170.08     0          0          0          0
142NE007         168.10     0          0          0          0
142NE012         175.75     0          0          0          0
142NE013         174.63     0          0          0          0
142NE021         172.38     0          0          0          0
142NE023         166.23     0          0          0          0
142NE024         166.92     0          0          0          0
142NE025         163.48     0          0          0          0
142NE046         140.85     0          0          0          0
142NE049         141.00     0          0          0          0
142NE064         165.45     0          0          0          0
142NE070         152.90     0          0          0          0
142NE071         163.34     0          0          0          0
142NE072         159.10     0          0          0          0
142NE073         154.25     0          0          0          0
142NE074         146.46     0          0          0          0
142NE075         144.19     0          0          0          0
142NE076         153.45     0          0          0          0
142NE077         142.60     0          0          0          0
142NE078         140.32     0          0          0          0
142NE079         138.93     0          0          0          0
142NE080         138.11     0          0          0          0
142NE081         137.65     0          0          0          0
142NE082         136.67     0          0          0          0
142SE009         136.08     0          0          0          0
142SE010         135.07     0          0          0          0
142SE011         133.84     0          0          0          0
143NW001         223.15     0          0          0          0
143NW011         220.70     0          0          0          0
143NW016         221.70     0          0          0          0
143NW018         218.20     0          0          0          0
143NW024         212.00     0          0          0          0
143NW030         208.50     0          0          0          0
143NW031         204.60     0          0          0          0
143NW032         204.08     0          0          0          0
143NW033         203.40     0          0          0          0
143NW039         201.40     0          0          0          0
143NW040         200.00     0          0          0          0
143NW041         198.10     0          0          0          0
143NW049         195.50     0          0          0          0
143NW050         195.65     0          0          0          0
143NW061         194.40     0          0          0          0
143NW067         192.70     0          0          0          0
143NW072         192.20     0          0          0          0
143SE044         197.00     0          0          0          0
143SE057         190.20     0          0          0          0
143SE061         179.50     0          0          0          0
143SE068         179.03     0          0          0          0
143SE069         178.15     0          0          0          0
143SE071         171.20     0          0          0          0
143SE078         171.00     0          0          0          0
143SW005         191.50     0          0          0          0
143SW011         188.20     0          0          0          0
143SW012         186.00     0          0          0          0
143SW013         185.70     0          0          0          0
143SW018         182.00     0          0          0          0
143SW025         180.20     0          0          0          0
143SW033         177.90     0          0          0          0
143SW041         178.40     0          0          0          0
143SW048         175.00     0          0          0          0
143SW057         175.00     0          0          0          0
143SW058         173.30     0          0          0          0
144SW066         227.00     0          0          0          0
144SW067         226.98     0          0          0          0
192NE008         145.94     0          0          0          0
192NE011         138.67     0          0          0          0
192NE030         136.64     0          0          0          0
192NE031         136.05     0          0          0          0
192NE032         137.55     0          0          0          0
192NE043         136.27     0          0          0          0
192NE044         130.65     0          0          0          0
192NE045         123.45     0          0          0          0
192NE046         123.95     0          0          0          0
192NE057         127.51     0          0          0          0
192NE058         125.30     0          0          0          0
192NE059         136.02     0          0          0          0
192NW011         143.82     0          0          0          0
192NW012         142.78     0          0          0          0
192SE001         122.61     0          0          0          0
192SE006         119.61     0          0          0          0
192SE007         119.61     0          0          0          0
192SE009         119.00     0          0          0          0
192SE010         119.00     0          0          0          0
192SE011         120.17     0          0          0          0
192SE012         120.18     0          0          0          0
192SE013         122.82     0          0          0          0
192SE014         124.91     0          0          0          0
192SE015         121.54     0          0          0          0
192SE016         119.90     0          0          0          0
192SW001         126.73     0          0          0          0
192SW002         125.97     0          0          0          0
192SW003         124.65     0          0          0          0
192SW004         126.84     0          0          0          0
192SW005         127.05     0          0          0          0
192SW006         126.80     0          0          0          0
192SW007         129.13     0          0          0          0
192SW008         127.07     0          0          0          0
192SW009         123.97     0          0          0          0
193SW010         177.71     0          0          0          0
193SW011         167.20     0          0          0          0
193SW017         164.89     0          0          0          0
193SW018         180.50     0          0          0          0
193SW036         158.97     0          0          0          0
193SW038         162.31     0          0          0          0
193SW039         161.80     0          0          0          0
193SW051         156.49     0          0          0          0
193SW052         159.80     0          0          0          0
193SW054         162.11     0          0          0          0
193SW055         150.46     0          0          0          0
193SW056         152.05     0          0          0          0
193SW057         151.92     0          0          0          0
193SW059         149.28     0          0          0          0
193SW060         146.06     0          0          0          0
193SW062         156.31     0          0          0          0
194NE020         264.70     0          0          0          0
194NE021         253.20     0          0          0          0
194NE022         245.00     0          0          0          0
194NE023         241.40     0          0          0          0
194NE024         233.50     0          0          0          0
194NE025         228.42     0          0          0          0
194NE026         225.00     0          0          0          0
194NE027         222.00     0          0          0          0
195SE087         228.00     0          0          0          0
251SE001         136.60     0          0          0          0
251SE002         128.92     0          0          0          0
251SE003         130.10     0          0          0          0
251SE004         129.44     0          0          0          0
251SE005         128.85     0          0          0          0
251SE006         131.10     0          0          0          0
251SW003         140.56     0          0          0          0
251SW004         138.00     0          0          0          0
251SW006         138.38     0          0          0          0
251SW008         136.08     0          0          0          0
251SW009         134.87     0          0          0          0
251SW010         134.26     0          0          0          0
251SW011         135.62     0          0          0          0
251SW012         134.77     0          0          0          0
251SW013         132.21     0          0          0          0
252SE015         187.69     0          0          0          0
252SE016         184.18     0          0          0          0
318NW007         157.30     0          0          0          0
318NW008         158.96     0          0          0          0
318NW009         157.00     0          0          0          0
318NW010         155.20     0          0          0          0
318NW012         155.30     0          0          0          0
318NW014         154.88     0          0          0          0
318NW015         156.10     0          0          0          0
318NW016         151.00     0          0          0          0
318NW017         151.74     0          0          0          0
318NW018         150.94     0          0          0          0
318NW020         140.30     0          0          0          0
318SE001         135.38     0          0          0          0
318SE002         135.02     0          0          0          0
318SE004         134.16     0          0          0          0
318SE006         138.28     0          0          0          0
318SE009         139.94     0          0          0          0
318SW001         134.03     0          0          0          0
318SW002         138.40     0          0          0          0
318SW003         134.10     0          0          0          0
318SW004         135.52     0          0          0          0
318SW005         138.30     0          0          0          0
318SW006         139.31     0          0          0          0
318SW007         136.27     0          0          0          0
318SW008         136.51     0          0          0          0
318SW009         135.68     0          0          0          0
393NE001         140.73     0          0          0          0
393NW001         156.89     0          0          0          0
393NW002         146.61     0          0          0          0
393NW003         141.37     0          0          0          0
393NW004         141.24     0          0          0          0
393NW005         139.68     0          0          0          0
393SE001         138.86     0          0          0          0
393SE002         140.57     0          0          0          0
393SE003         140.82     0          0          0          0
393SE004         137.67     0          0          0          0
393SE005         142.83     0          0          0          0
393SE006         137.95     0          0          0          0
098NW014         123.52     0          0          0          0
098NW015         120.20     0          0          0          0
143NW008         223.00     0          0          0          0
143NW015         218.00     0          0          0          0
143NW021         214.00     0          0          0          0
143NW038         207.00     0          0          0          0
143NW045         203.00     0          0          0          0
143NW055         198.00     0          0          0          0
143NW069         192.70     0          0          0          0
143NW075         211.00     0          0          0          0
143NW063         192.96     0          0          0          0
143SW008         188.50     0          0          0          0
PS-GM            246.20     0          0          0          0
GM-SH            246.20     0          0          0          0

[STORAGE]
;;Name           Elev       MaxDepth   InitDepth  Shape      Curve/Params
;;-------------- ---------- ---------- ---------- ---------- ----------
098NW029         126.00     0          0          FUNCTIONAL 1000.00 0          0
098SW003         114.27     -5.95      0          FUNCTIONAL 600.00 0          0
141SW033         120.10     0          0          FUNCTIONAL 300.00 0          0
142NE065         163.21     0          0          FUNCTIONAL 600.00 0          0
193SW053         157.70     -6.20      0          FUNCTIONAL 600.00 0          0
098NW024         126.00     0          0          FUNCTIONAL 600.00 0          0

[CONDUITS]
;;Name           From             To               Length     Roughness  InOffset   OutOffset  InitFlow   MaxFlow
;;-------------- ---------------- ---------------- ---------- ---------- ---------- ---------- ---------- ----------
P098NW016        098NW016         098NW019         299.00     0.0130     105.10     104.86     0          0
P098NW017        098NW017         098NW018         295.00     0.0130     105.40     105.17     0          0
P098NW018        098NW018         098NW026         82.00      0.0130     105.07     105.00     0          0
P098NW019        098NW019         098NW020         85.00      0.0130     104.84     104.78     0          0
P098NW020        098NW020         098NW021         253.00     0.0130     104.70     104.50     0          0
P098NW021        098NW021         098NW023         10.00      0.0100     104.45     104.38     0          0
P098NW022        098NW022         098NW023         86.00      0.0130     106.36     105.18     0          0
P098NW023        098NW023         098NW024         30.00      0.0100     104.38     104.28     0          0
P098NW024        098NW024         098NW029         45.00      0.0100     104.28     104.17     0          0
POVERFLOW        098NW024         OVERFLOW         50.00      0.0130     110.28     108.00     0          0
P098NW026        098NW026         098NW023         270.00     0.0130     104.88     104.73     0          0
P098NW027        098NW027         098NW026         19.00      0.0130     104.91     104.88     0          0
P098NW028        098NW028         098NW027         9.00       0.0130     105.72     104.91     0          0
P098NW040        098NW040         098NW041         187.00     0.0130     111.69     111.22     0          0
P098NW041        098NW041         098NW042         204.00     0.0130     111.22     110.48     0          0
P098NW042        098NW042         098NW043         295.00     0.0130     110.48     109.40     0          0
P098NW043        098NW043         098NW044         299.00     0.0130     109.40     108.36     0          0
P098NW044        098NW044         098NW045         293.00     0.0130     108.36     107.68     0          0
P098NW045        098NW045         098NW046         120.00     0.0130     107.68     107.13     0          0
P098NW046        098NW046         098NW022         170.00     0.0130     107.13     106.36     0          0
P098SW001        098SW001         098SW002         10.00      0.0130     105.96     105.95     0          0
P098SW002        098SW002         098NW028         189.00     0.0130     105.95     105.72     0          0
P098SW003        098SW003         098SW001         36.00      0.0130     106.32     106.14     0          0
P098SW004        098SW004         098SW003         91.40      0.0130     106.35     106.32     0          0
P098SW007        098SW007         098SW004         130.00     0.0130     106.50     106.35     0          0
P098SW010        098SW010         098SW007         176.70     0.0130     106.72     106.50     0          0
P098SW014        098SW014         098SW010         260.00     0.0130     107.10     106.72     0          0
P098SW018        098SW018         098SW014         327.60     0.0130     107.55     107.10     0          0
P098SW021        098SW021         098SW018         158.00     0.0130     107.77     107.55     0          0
P098SW023        098SW023         098SW021         318.00     0.0130     108.14     107.77     0          0
P098SW025        098SW025         098SW023         318.00     0.0130     108.49     108.14     0          0
P099SW001        099SW001         099SW002         174.00     0.0130     126.20     125.44     0          0
P099SW002        099SW002         099SW003         93.00      0.0130     123.90     122.46     0          0
P099SW003        099SW003         099SW004         80.00      0.0130     116.75     115.87     0          0
P099SW004        099SW004         099SW005         167.00     0.0130     115.87     115.16     0          0
P099SW005        099SW005         099SW006         276.00     0.0130     115.16     114.23     0          0
P099SW006        099SW006         099SW007         283.00     0.0130     114.23     113.48     0          0
P099SW007        099SW007         099SW008         185.00     0.0130     113.48     112.84     0          0
P099SW008        099SW008         099SW009         120.00     0.0130     112.78     112.29     0          0
P099SW009        099SW009         098NW040         144.00     0.0130     112.29     111.69     0          0
P141SE001        141SE001         141SE005         454.00     0.0130     106.28     105.92     0          0
P141SE004        141SE004         098NW014         192.00     0.0130     105.63     105.47     0          0
P141SE005        141SE005         098NW015         210.00     0.0130     105.92     105.75     0          0
P141SE006        141SE006         141SE009         416.00     0.0130     107.64     107.31     0          0
P141SE007        141SE007         141SE008         208.00     0.0130     107.87     107.71     0          0
P141SE008        141SE008         141SE010         352.10     0.0130     107.71     107.43     0          0
P141SE009        141SE009         141SE011         406.00     0.0130     107.31     106.99     0          0
P141SE010        141SE010         141SE012         339.60     0.0130     107.43     107.15     0          0
P141SE011        141SE011         141SE014         406.00     0.0130     106.99     106.67     0          0
P141SE012        141SE012         141SE013         184.70     0.0130     107.15     107.01     0          0
P141SE013        141SE013         141SE017         144.00     0.0130     107.01     106.89     0          0
P141SE014        141SE014         141SE019         207.00     0.0130     106.67     106.50     0          0
P141SE017        141SE017         141SE018         137.00     0.0130     106.89     106.78     0          0
P141SE018        141SE018         141SE021         172.00     0.0130     106.78     106.64     0          0
P141SE019        141SE019         141SE020         149.00     0.0130     106.47     106.35     0          0
P141SE020        141SE020         141SE022         450.00     0.0130     106.35     106.00     0          0
P141SE021        141SE021         141SE001         454.00     0.0130     106.64     106.28     0          0
P141SE022        141SE022         141SE004         448.00     0.0130     106.00     105.63     0          0
P141SW017        141SW017         141SW019         260.00     0.0130     110.20     109.99     0          0
P141SW018        141SW018         141SW033         790.00     0.0130     109.99     109.50     0          0
P141SW019        141SW019         141SW020         119.00     0.0130     109.99     109.86     0          0
P141SW020        141SW020         141SW021         145.00     0.0130     109.86     109.74     0          0
P141SW021        141SW021         141SW033         136.60     0.0130     109.74     109.61     0          0
P141SW023        141SW023         141SW024         154.00     0.0130     109.41     109.28     0          0
P141SW024        141SW024         141SW026         223.90     0.0130     109.28     109.10     0          0
P141SW025        141SW025         141SW027         330.00     0.0130     109.04     108.77     0          0
P141SW026        141SW026         141SW028         316.00     0.0130     109.10     108.85     0          0
P141SW027        141SW027         141SW029         361.00     0.0130     108.77     108.48     0          0
P141SW028        141SW028         141SW030         375.00     0.0130     108.85     108.55     0          0
P141SW029        141SW029         141SW031         450.00     0.0130     108.48     108.12     0          0
P141SW030        141SW030         141SW032         438.00     0.0130     108.55     108.20     0          0
P141SW031        141SW031         141SE006         425.00     0.0130     108.12     107.78     0          0
P141SW032        141SW032         141SE007         409.00     0.0130     108.20     107.87     0          0
P141SW033        141SW033         141SW023         210.00     0.0130     109.62     109.41     0          0
P141SW33a        141SW033         141SW025         271.00     0.0130     109.61     109.04     0          0
P142NE001        142NE001         142NE006         236.40     0.0130     164.93     164.08     0          0
P142NE006        142NE006         142NE007         187.40     0.0130     164.08     163.41     0          0
P142NE007        142NE007         142NE021         287.00     0.0130     163.41     162.38     0          0
P142NE012        142NE012         142NE013         150.00     0.0130     164.52     162.60     0          0
P142NE013        142NE013         142NE064         104.00     0.0130     161.47     158.90     0          0
P142NE021        142NE021         142NE023         187.00     0.0130     162.13     160.63     0          0
P142NE023        142NE023         142NE024         179.00     0.0130     160.63     159.20     0          0
P142NE024        142NE024         142NE025         164.40     0.0130     159.20     157.89     0          0
P142NE025        142NE025         142NE071         41.00      0.0130     157.89     156.32     0          0
P142NE046        142NE046         142NE049         148.00     0.0130     135.06     134.29     0          0
P142NE049        142NE049         142NE078         105.00     0.0130     133.49     133.32     0          0
P142NE064        142NE064         142NE065         211.00     0.0130     158.90     155.30     0          0
P142NE065        142NE065         142NE070         229.00     0.0130     153.59     146.91     0          0
P142NE070        142NE070         142NE076         141.00     0.0130     146.91     142.80     0          0
P142NE071        142NE071         142NE072         142.00     0.0130     156.32     151.45     0          0
P142NE072        142NE072         142NE073         108.00     0.0130     151.45     148.20     0          0
P142NE073        142NE073         142NE074         197.00     0.0130     148.15     141.23     0          0
P142NE074        142NE074         142NE075         269.00     0.0130     141.17     138.13     0          0
P142NE075        142NE075         142NE077         101.00     0.0130     138.04     136.90     0          0
P142NE076        142NE076         142NE077         195.00     0.0130     142.65     136.55     0          0
P142NE077        142NE077         142NE046         132.00     0.0130     135.80     135.11     0          0
P142NE078        142NE078         142NE079         181.00     0.0130     133.32     131.93     0          0
P142NE079        142NE079         142NE080         210.00     0.0130     131.93     131.11     0          0
P142NE080        142NE080         142NE081         211.00     0.0130     131.11     130.65     0          0
P142NE081        142NE081         142NE082         222.00     0.0130     130.65     129.67     0          0
P142NE082        142NE082         142SE009         231.00     0.0130     129.67     129.08     0          0
P142SE009        142SE009         142SE010         332.00     0.0130     129.08     128.07     0          0
P142SE010        142SE010         142SE011         260.00     0.0130     128.07     126.84     0          0
P142SE011        142SE011         099SW001         204.00     0.0130     126.84     126.20     0          0
P143NW001        143NW001         143NW011         114.50     0.0130     215.21     213.61     0          0
P143NW011        143NW011         143NW016         277.90     0.0130     213.52     209.63     0          0
P143NW016        143NW016         143NW018         139.00     0.0130     208.25     205.82     0          0
P143NW018        143NW018         143NW024         215.90     0.0130     205.77     202.00     0          0
P143NW024        143NW024         143NW030         144.00     0.0130     201.95     199.41     0          0