;; SWMM5 .inp converted from XPSWMM .xp file
;; Generated by XPSWMM Card Reader
;; Source format: XP_CARD | Original title: Barry Baker Gray & Osborne 206.284.0860

[TITLE]
;;Project Title/Notes
Barry Baker Gray & Osborne 206.284.0860

[OPTIONS]
FLOW_UNITS           CFS
INFILTRATION         HORTON
FLOW_ROUTING         DYNWAVE
LINK_OFFSETS         DEPTH
MIN_SLOPE            0.0
ALLOW_PONDING        NO
SKIP_STEADY_STATE    NO
ROUTING_STEP         00:00:75
VARIABLE_STEP        0.75
INERTIAL_DAMPING     PARTIAL
NORMAL_FLOW_LIMITED  BOTH
HEAD_TOLERANCE       0.0033

[JUNCTIONS]
;;Name           Elev       MaxDepth   InitDepth  SurDepth   Aponded
;;-------------- ---------- ---------- ---------- ---------- ----------
SMH1995Z35       123.12     0          0          0          0
SMH1995Z18       127.62     0          0          0          0
SMH1995Z29       122.62     0          0          0          0
SMH1995Z24       123.45     0          0          0          0
SMH1995Z28       123.12     0          0          0          0
SMH1995Z20       128.12     0          0          0          0
SMH1995S11       129.62     0          0          0          0
SMH1995Z22       123.62     0          0          0          0
SMH1995Z17       129.19     0          0          0          0
SMH1995Z36       126.77     0          0          0          0
SMH1995Z15       131.62     0          0          0          0
SMH1995Z23       123.62     0          0          0          0
SMH1995Z30       120.62     0          0          0          0
SMH1995Z16       130.62     0          0          0          0
SMH1995Z33       117.62     0          0          0          0
SMH1995Z34       118.62     0          0          0          0
SMH3095A17       146.62     0          0          0          0
SMH1995Z25       124.62     0          0          0          0
SMH1995Z26       125.62     0          0          0          0
SMH1995Z19       129.62     0          0          0          0
SMH1995Z27       126.12     0          0          0          0
SMH3095A09       132.62     0          0          0          0
SMH3095A12       134.12     0          0          0          0
SMH2095W07       98.62      0          0          0          0
SMH2095W13       81.62      0          0          0          0
SMH2095W17       76.62      0          0          0          0
SMH2095W24       77.62      0          0          0          0
SMH2095W04       96.00      0          0          0          0
SMH2095W01       113.12     0          0          0          0
SMH2095W03       109.62     0          0          0          0
SMH2095W05       105.62     0          0          0          0
SMH2095W09       96.00      0          0          0          0
SMH2095W10       91.62      0          0          0          0
SMH2095W06       106.62     0          0          0          0
SMH2095W12       81.62      0          0          0          0
SMH2095W14       78.62      0          0          0          0
SMH2095W11       91.74      0          0          0          0
SMH2995D04       111.12     0          0          0          0
SMH2095W16       81.62      0          0          0          0
SMH2995D19       77.50      0          0          0          0
SMH2995D13       91.62      0          0          0          0
SMH2095X03       68.62      0          0          0          0
SMH2095W19       78.62      0          0          0          0
SMH2095W20       74.52      0          0          0          0
SMH3095A18       148.00     0          0          0          0
SMH3095A10       132.62     0          0          0          0
SMH3095A20       154.62     0          0          0          0
SMH3095A15       138.00     0          0          0          0
SMH3095A22       155.22     0          0          0          0
SMH3095A13       138.12     0          0          0          0
SMH3095A14       137.62     0          0          0          0
SMH3095A11       145.62     0          0          0          0
SMH3095A21       154.62     0          0          0          0
SMH3095H14       158.62     0          0          0          0
SMH2995D09       100.62     0          0          0          0
SMH2995C02       67.62      0          0          0          0
SMH2995D15       100.62     0          0          0          0
SMH2995D22       94.62      0          0          0          0
SMH2995D08       137.62     0          0          0          0
SMH2995D11       112.00     0          0          0          0
SMH2995F03       60.00      0          0          0          0
SMH2995M20       68.00      0          0          0          0
SMH2995D02       158.62     0          0          0          0
SMH2995D14       100.62     0          0          0          0
SMH2995D05       124.00     0          0          0          0
SMH2995C01       69.62      0          0          0          0
SMH2995D23       106.62     0          0          0          0
SMH2995D06       126.00     0          0          0          0
SMH2995D20       81.19      0          0          0          0
SMH2995C05       65.00      0          0          0          0
SMH2995C04       67.62      0          0          0          0
SMH2995D12       107.00     0          0          0          0
SMH2995D03       137.00     0          0          0          0
SMH2995D07       125.00     0          0          0          0
SMH2995C06       61.62      0          0          0          0
SMH2995C07       61.12      0          0          0          0
SMH2995D21       77.12      0          0          0          0
SMH2995D18       94.00      0          0          0          0
SMH2995D16       98.00      0          0          0          0
SMH2995E04       136.00     0          0          0          0
SMH2995E01       158.00     0          0          0          0
SMH2995C03       77.00      0          0          0          0
SMH2995D17       97.00      0          0          0          0
SMH2995F08       65.00      0          0          0          0
SMH2995F01       70.00      0          0          0          0
SMH2995E12       70.62      0          0          0          0
SMH2995E09       100.62     0          0          0          0
SMH2995E13       68.12      0          0          0          0
SMH2995F05       58.62      0          0          0          0
SMH2995E10       93.00      0          0          0          0
SMH2995F04       62.62      0          0          0          0
SMH2995F02       63.12      0          0          0          0
SMH2995F06       60.62      0          0          0          0
SMH2995E11       99.62      0          0          0          0
SMH2995L03       64.00      0          0          0          0
SMH2995L02       63.50      0          0          0          0
SMH2995M21       68.00      0          0          0          0
SMH2995L06       65.00      0          0          0          0
SMH2995M15       94.62      0          0          0          0
SMH2995M18       81.62      0          0          0          0
SMH2995M19       76.62      0          0          0          0
SMH2995L05       64.62      0          0          0          0
SMH2995D10       109.00     0          0          0          0
SMH2995D25       156.87     0          0          0          0
SMH2995D01       106.62     0          0          0          0
SMH2095W15       81.62      0          0          0          0
SMH2095X01       69.62      0          0          0          0
1842             77.50      0          0          0          0
1843             60.00      0          0          0          0
1845             77.00      0          0          0          0
1869             130.00     0          0          0          0

[CONDUITS]
;;Name           From             To               Length     Roughness  InOffset   OutOffset  InitFlow   MaxFlow
;;-------------- ---------------- ---------------- ---------- ---------- ---------- ---------- ---------- ----------
SML1995Z35       SMH1995Z35       SMH1995Z24       25.74      0.0240     107.88     107.27     0          0
SML1995Z18       SMH1995Z18       SMH1995Z24       156.66     0.0240     110.82     106.77     0          0
SML1995Z29       SMH1995Z29       SMH1995Z30       31.99      0.0150     106.99     106.58     0          0
SML1995Z24       SMH1995Z24       SMH1995Z29       81.25      0.0150     106.72     105.31     0          0
SML1995Z28       SMH1995Z28       SMH1995Z29       59.62      0.0150     107.57     107.05     0          0
SML1995Z0C       Node_1995        Node_1869724     22.52      0.0120     110.85     110.62     0          0
SML1995S11       SMH1995S11       SMH1995Z17       492.00     0.0150     114.05     112.63     0          0
SML1995Z22       SMH1995Z22       SMH1995Z23       436.11     0.0240     115.30     113.62     0          0
SML1995Z17       SMH1995Z17       SMH1995Z36       415.89     0.0240     110.37     109.12     0          0
SML1995Z36       SMH1995Z36       SMH1995Z35       121.32     0.0150     109.02     107.98     0          0
SML1995Z15       SMH1995Z15       SMH1995Z23       28.89      0.0150     117.82     109.89     0          0
SML1995Z23       SMH1995Z23       SMH1995Z30       101.43     0.0150     109.24     106.58     0          0
SML1995Z30       SMH1995Z30       SMH1995Z33       71.12      0.0150     106.58     104.72     0          0
SML1995Z16       SMH1995Z16       SMH1995Z18       90.90      0.0150     121.62     111.28     0          0
SML1995Z33       SMH1995Z33       SMH2095W01       173.11     0.0150     104.62     100.22     0          0
SML1995Z34       SMH1995Z34       SMH2095W06       170.27     0.0150     103.59     92.69      0          0
SML3095A17       SMH3095A17       SMH1995Z34       137.14     0.0240     140.52     108.98     0          0
SML1995Z25       SMH1995Z25       SMH1995Z24       151.11     0.0150     108.87     107.15     0          0
SML1995Z26       SMH1995Z26       SMH1995Z28       139.70     0.0150     109.04     107.77     0          0
SML1995Z19       SMH1995Z19       SMH1995Z25       158.38     0.0150     110.62     108.97     0          0
SML1995Z27       SMH1995Z27       SMH1995Z26       73.82      0.0240     114.70     109.14     0          0
SML3095A09       SMH3095A09       SMH1995Z20       147.54     0.0150     116.68     111.34     0          0
SML3095A12       SMH3095A12       SMH1995Z27       203.07     0.0240     117.62     115.43     0          0
SML2095W07       SMH2095W07       SMH2095W09       23.13      0.0150     85.74      84.72      0          0
SML2095W17       SMH2095W17       SMH2095W24       163.58     0.0150     63.38      60.21      0          0
SML2095W24       SMH2095W24       SMH2095W19       34.38      0.0150     59.68      54.25      0          0
SML2095W04       SMH2095W04       SMH2095W05       169.39     0.0150     94.58      93.73      0          0
SML2095W01       SMH2095W01       SMH2095W03       100.08     0.0150     100.22     97.22      0          0
SML2095W03       SMH2095W03       SMH2095W05       65.93      0.0150     97.22      93.73      0          0
SML2095W05       SMH2095W05       SMH2095W09       170.53     0.0150     93.73      84.71      0          0
SML2095W09       SMH2095W09       SMH2095W10       83.17      0.0150     84.66      76.56      0          0
SML2095W10       SMH2095W10       SMH2095W12       185.53     0.0150     76.36      68.42      0          0
SML2095W06       SMH2095W06       SMH2095W07       150.96     0.0150     91.71      85.94      0          0
SML2095W12       SMH2095W12       SMH2095W14       166.63     0.0150     68.32      66.17      0          0
SML2095W14       SMH2095W14       SMH2095W17       194.88     0.0150     66.07      63.48      0          0
SML2095W11       SMH2095W11       SMH2095W10       101.76     0.0150     78.23      77.12      0          0
SML2995D04       SMH2995D04       SMH2095W11       120.08     0.0240     104.52     78.23      0          0
SML2995D19       SMH2995D19       SMH2095W20       150.41     0.0240     55.48      53.98      0          0
SML2995D13       SMH2995D13       SMH2095W16       151.97     0.0150     70.79      68.05      0          0
SML2095X03       SMH2095X03       SMH2995C01       87.10      0.0150     53.11      52.31      0          0
SML2095W19       SMH2095W19       SMH2095W20       131.53     0.0150     54.25      54.08      0          0
SML3095A18       SMH3095A18       SMH3095A17       66.00      0.0150     142.83     140.62     0          0
SML3095A10       SMH3095A10       SMH3095A09       134.97     0.0150     120.62     116.78     0          0
SML3095A20       SMH3095A20       SMH3095A18       113.41     0.0150     146.62     142.83     0          0
SML3095A15       SMH3095A15       SMH3095A14       54.87      0.0150     133.12     129.17     0          0
SML3095A22       SMH3095A22       SMH3095A20       129.78     0.0150     146.62     146.62     0          0
SML3095A13       SMH3095A13       SMH3095A12       188.91     0.0150     133.12     117.72     0          0
SML3095A14       SMH3095A14       SMH3095A12       160.27     0.0150     129.17     117.62     0          0
SML3095A11       SMH3095A11       SMH3095A10       362.97     0.0240     122.87     120.72     0          0
SML3095A21       SMH3095A21       SMH3095A22       277.22     0.0150     148.62     146.62     0          0
SML3095H14       SMH3095H14       SMH3095A21       373.50     0.0240     153.62     148.72     0          0
SML2995D09       SMH2995D09       SMH2995D13       214.77     0.0150     92.53      71.48      0          0
SML2995C02       SMH2995C02       SMH2995C04       50.68      0.0150     50.68      50.51      0          0
SML2995D15       SMH2995D15       SMH2995D14       73.06      0.0150     79.17      77.07      0          0
SML2995D22       SMH2995D22       SMH2995D18       119.25     0.0240     91.00      87.03      0          0
SML2995D08       SMH2995D08       SMH2995D11       96.01      0.0090     132.78     109.74     0          0
SML2995D11       SMH2995D11       SMH2995D16       165.88     0.0090     109.74     95.47      0          0
SML2995F03       SMH2995F03       SMH2995F05       86.88      0.0150     49.30      46.25      0          0
SML2995M20       SMH2995M20       SMH2995L02       191.88     0.0150     53.32      51.40      0          0
SML2995D02       Node_2995        Node_10011062    108.40     0.0090     154.42     140.70     0          0
SML2995D14       Node_2995        Node_1002809     222.57     0.0150     76.95      70.87      0          0
SML2995D05       Node_2995        Node_1003806     235.50     0.0150     106.97     104.62     0          0
SML2995C01       Node_2995        Node_1004982     313.32     0.0150     52.31      50.78      0          0
SML2995D06       Node_2995        Node_10061003    95.76      0.0150     107.93     106.97     0          0
SML2995C05       Node_2995        Node_10091014    262.00     0.0150     58.24      55.62      0          0
SML2995C04       Node_2995        Node_10101014    208.63     0.0150     50.51      49.52      0          0
SML2995D12       Node_2995        Node_1011983     137.78     0.0150     80.65      79.27      0          0
SML2995D03       Node_2995        Node_10121013    199.25     0.0150     84.60      82.61      0          0
SML2995D07       Node_2995        Node_10131058    115.30     0.0240     82.61      81.46      0          0
SML2995C06       Node_2995        Node_10141015    194.86     0.0150     49.52      48.63      0          0
SML2995C07       Node_2995        Node_10151030    320.01     0.0150     48.63      46.25      0          0
SML2995D21       Node_2995        Node_10171022    160.00     0.0150     72.82      72.02      0          0
SML2995D18       Node_2995        Node_10181017    113.68     0.0120     87.03      72.92      0          0
SML2995D16       Node_2995        Node_1019984     134.36     0.0160     95.47      91.00      0          0
SML2995E04       Node_2995        Node_1020985     239.42     0.0240     135.17     132.78     0          0
SML2995E01       Node_2995        Node_10211001    245.87     0.0240     156.87     154.52     0          0
SML2995C03       Node_2995        Node_10221026    305.20     0.0150     72.02      61.45      0          0
SML2995F08       Node_2995        Node_1025987     169.75     0.0240     55.30      49.30      0          0
SML2995F01       Node_2995        Node_10261025    172.89     0.0240     61.45      55.30      0          0
SML2995E09       Node_2995        Node_10281032    213.30     0.0240     82.62      81.42      0          0
SML2995E13       Node_2995        Node_10291027    474.34     0.0240     63.62      61.74      0          0
SML2995F05       Node_2995        Node_10301036    493.60     0.0150     46.25      44.61      0          0
SML2995E10       Node_2995        Node_10321037    310.38     0.0240     81.42      79.67      0          0
SML2995F04       Node_2995        Node_10331036    206.88     0.0150     48.23      44.61      0          0
SML2995F02       Node_2995        Node_10341033    343.75     0.0150     50.77      48.33      0          0
SML2995F06       Node_2995        Node_10361050    495.03     0.0150     44.61      42.97      0          0
SML2995E11       Node_2995        Node_10371043    480.50     0.0150     79.61      75.10      0          0
SML2995L03       Node_2995        Node_10381033    438.38     0.0150     50.88      48.69      0          0
SML2995L02       Node_2995        Node_10391034    482.70     0.0150     51.40      50.87      0          0
SML2995M21       Node_2995        Node_10401029    484.51     0.0240     66.47      63.72      0          0
SML2995L06       Node_2995        Node_10421039    212.76     0.0150     52.40      51.50      0          0
SML2995M15       Node_2995        Node_10431045    185.56     0.0150     75.10      67.50      0          0
SML2995M18       Node_2995        Node_10451040    186.95     0.0150     67.40      66.47      0          0
SML2995M19       Node_2995        Node_10471045    474.30     0.0240     68.12      67.40      0          0
SML2995D10       Node_2995        Node_10581011    80.70      0.0240     81.46      80.65      0          0
SML2995D25       Node_2995        Node_1062985     230.53     0.0090     140.70     132.88     0          0
SML1995Z0E       SMH1995Z29       SMH1995Z34       91.37      0.0140     105.22     103.69     0          0
SML2995D23       Node_2995        Node_10051830    187.83     0.0140     95.00      94.10      0          0
SML2995D01       Node_2995        Node_1830802     285.18     0.0140     94.10      92.69      0          0
SML2095W13       SMH2095W13       SMH2095W15       224.86     0.0140     65.91      65.22      0          0
SML2095W0A       Node_2095        Node_1833749     191.56     0.0140     65.81      63.48      0          0
SML2095W16       SMH2095W16       SMH2095W15       180.06     0.0140     68.00      66.04      0          0
SML2095W20       SMH2095W20       SMH2095X01       139.33     0.0140     53.98      53.31      0          0
SML2095X1B       Node_2095        Node_1837810     47.74      0.0140     53.31      53.11      0          0
SML2995D0A       Node_2995        Node_1842808     282.82     0.0140     58.31      55.48      0          0
SML2995D20       Node_2995        Node_10081010    210.40     0.0140     75.25      51.96      0          0
SML2995C7B       Node_2995        Node_1843987     308.53     0.0140     50.80      49.30      0          0
SML2995D0B       Node_2995        Node_18451027    304.07     0.0140     71.60      65.52      0          0
SML2095E12       Node_2095        Node_10271026    169.00     0.0140     61.45      61.45      0          0
SML1995Z20       SMH1995Z20       SMH1995Z26       177.06     0.0140     110.89     109.37     0          0
SML2995D17       Node_2995        Node_10231028    217.70     0.0240     83.80      82.72      0          0

[XSECTIONS]
;;Link           Shape        Geom1      Geom2      Geom3      Geom4      Barrels
;;-------------- ------------ ---------- ---------- ---------- ---------- ----------
SML1995Z35       CIRCULAR     1.50       0          0          0          1
SML1995Z18       CIRCULAR     0.67       0          0          0          1
SML1995Z29       CIRCULAR     2.50       0          0          0          1
SML1995Z24       CIRCULAR     2.50       0          0          0          1
SML1995Z28       CIRCULAR     1.50       0          0          0          1
SML1995Z0C       CIRCULAR     1.33       0          0          0          1
SML1995S11       CIRCULAR     0.83       0          0          0          1
SML1995Z22       CIRCULAR     0.67       0          0          0          1
SML1995Z17       CIRCULAR     2.00       0          0          0          1
SML1995Z36       CIRCULAR     1.50       0          0          0          1
SML1995Z15       CIRCULAR     1.00       0          0          0          1
SML1995Z23       CIRCULAR     1.00       0          0          0          1
SML1995Z30       CIRCULAR     1.00       0          0          0          1
SML1995Z16       CIRCULAR     0.67       0          0          0          1
SML1995Z33       CIRCULAR     1.00       0          0          0          1
SML1995Z34       CIRCULAR     2.50       0          0          0          1
SML3095A17       CIRCULAR     0.50       0          0          0          1
SML1995Z25       CIRCULAR     0.83       0          0          0          1
SML1995Z26       CIRCULAR     1.50       0          0          0          1
SML1995Z19       CIRCULAR     0.83       0          0          0          1
SML1995Z27       CIRCULAR     0.67       0          0          0          1
SML3095A09       CIRCULAR     1.25       0          0          0          1
SML3095A12       CIRCULAR     0.67       0          0          0          1
SML2095W07       CIRCULAR     2.50       0          0          0          1
SML2095W17       CIRCULAR     2.00       0          0          0          1
SML2095W24       CIRCULAR     2.00       0          0          0          1
SML2095W04       CIRCULAR     0.67       0          0          0          1
SML2095W01       CIRCULAR     1.00       0          0          0          1
SML2095W03       CIRCULAR     1.25       0          0          0          1
SML2095W05       CIRCULAR     1.25       0          0          0          1
SML2095W09       CIRCULAR     1.50       0          0          0          1
SML2095W10       CIRCULAR     1.50       0          0          0          1
SML2095W06       CIRCULAR     2.50       0          0          0          1
SML2095W12       CIRCULAR     2.00       0          0          0          1
SML2095W14       CIRCULAR     2.00       0          0          0          1
SML2095W11       CIRCULAR     1.25       0          0          0          1
SML2995D04       CIRCULAR     0.50       0          0          0          1
SML2995D19       CIRCULAR     0.50       0          0          0          1
SML2995D13       CIRCULAR     2.00       0          0          0          1
SML2095X03       CIRCULAR     2.50       0          0          0          1
SML2095W19       CIRCULAR     2.50       0          0          0          1
SML3095A18       CIRCULAR     0.50       0          0          0          1
SML3095A10       CIRCULAR     0.83       0          0          0          1
SML3095A20       CIRCULAR     0.83       0          0          0          1
SML3095A15       CIRCULAR     0.50       0          0          0          1
SML3095A22       CIRCULAR     0.83       0          0          0          1
SML3095A13       CIRCULAR     0.50       0          0          0          1
SML3095A14       CIRCULAR     0.50       0          0          0          1
SML3095A11       CIRCULAR     0.83       0          0          0          1
SML3095A21       CIRCULAR     0.67       0          0          0          1
SML3095H14       CIRCULAR     0.50       0          0          0          1
SML2995D09       CIRCULAR     1.00       0          0          0          1
SML2995C02       CIRCULAR     2.50       0          0          0          1
SML2995D15       CIRCULAR     1.50       0          0          0          1
SML2995D22       CIRCULAR     0.50       0          0          0          1
SML2995D08       CIRCULAR     0.67       0          0          0          1
SML2995D11       CIRCULAR     0.67       0          0          0          1
SML2995F03       CIRCULAR     1.00       0          0          0          1
SML2995M20       CIRCULAR     0.50       0          0          0          1
SML2995D02       CIRCULAR     0.67       0          0          0          1
SML2995D14       CIRCULAR     1.50       0          0          0          1
SML2995D05       CIRCULAR     0.50       0          0          0          1
SML2995C01       CIRCULAR     2.50       0          0          0          1
SML2995D06       CIRCULAR     0.50       0          0          0          1
SML2995C05       CIRCULAR     0.50       0          0          0          1
SML2995C04       CIRCULAR     2.50       0          0          0          1
SML2995D12       CIRCULAR     0.50       0          0          0          1
SML2995D03       CIRCULAR     0.50       0          0          0          1
SML2995D07       CIRCULAR     0.50       0          0          0          1
SML2995C06       CIRCULAR     2.50       0          0          0          1
SML2995C07       CIRCULAR     2.50       0          0          0          1
SML2995D21       CIRCULAR     0.67       0          0          0          1
SML2995D18       CIRCULAR     0.67       0          0          0          1
SML2995D16       CIRCULAR     0.50       0          0          0          1
SML2995E04       CIRCULAR     0.50       0          0          0          1
SML2995E01       CIRCULAR     0.50       0          0          0          1
SML2995C03       CIRCULAR     0.67       0          0          0          1
SML2995F08       CIRCULAR     0.83       0          0          0          1
SML2995F01       CIRCULAR     0.83       0          0          0          1
SML2995E09       CIRCULAR     0.50       0          0          0          1
SML2995E13       CIRCULAR     1.00       0          0          0          1
SML2995F05       CIRCULAR     3.00       0          0          0          1
SML2995E10       CIRCULAR     0.50       0          0          0          1
SML2995F04       CIRCULAR     1.25       0          0          0          1
SML2995F02       CIRCULAR     1.25       0          0          0          1
SML2995F06       CIRCULAR     3.00       0          0          0          1
SML2995E11       CIRCULAR     1.00       0          0          0          1
SML2995L03       CIRCULAR     0.67       0          0          0          1
SML2995L02       CIRCULAR     1.00       0          0          0          1
SML2995M21       CIRCULAR     1.00       0          0          0          1
SML2995L06       CIRCULAR     0.67       0          0          0          1
SML2995M15       CIRCULAR     0.67       0          0          0          1
SML2995M18       CIRCULAR     1.00       0          0          0          1
SML2995M19       CIRCULAR     0.83       0          0          0          1
SML2995D10       CIRCULAR     0.50       0          0          0          1
SML2995D25       CIRCULAR     0.67       0          0          0          1
SML1995Z0E       CIRCULAR     2.50       0          0          0          1
SML2995D23       CIRCULAR     0.50       0          0          0          1
SML2995D01       CIRCULAR     0.67       0          0          0          1
SML2095W13       CIRCULAR     1.25       0          0          0          1
SML2095W0A       CIRCULAR     1.25       0          0          0          1
SML2095W16       CIRCULAR     2.00       0          0          0          1
SML2095W20       CIRCULAR     2.50       0          0          0          1
SML2095X1B       CIRCULAR     2.50       0          0          0          1
SML2995D0A       CIRCULAR     0.50       0          0          0          1
SML2995D20       CIRCULAR     0.67       0          0          0          1
SML2995C7B       CIRCULAR     0.50       0          0          0          1
SML2995D0B       CIRCULAR     0.50       0          0          0          1
SML2095E12       CIRCULAR     0.83       0          0          0          1
SML1995Z20       CIRCULAR     1.33       0          0          0          1
SML2995D17       CIRCULAR     0.50       0          0          0          1

[LOSSES]
;;Link           Inlet      Outlet     Average    Flap Gate
;;-------------- ---------- ---------- ---------- ----------
SML1995Z35       0          0          0          NO
SML1995Z18       0          0          0          NO
SML1995Z29       0          0          0          NO
SML1995Z24       0          0          0          NO
SML1995Z28       0          0          0          NO
SML1995Z0C       0          0          0          NO
SML1995S11       0          0          0          NO
SML1995Z22       0          0          0          NO
SML1995Z17       0          0          0          NO
SML1995Z36       0          0          0          NO
SML1995Z15       0          0          0          NO
SML1995Z23       0          0          0          NO
SML1995Z30       0          0          0          NO
SML1995Z16       0          0          0          NO
SML1995Z33       0          0          0          NO
SML1995Z34       0          0          0          NO
SML3095A17       0          0          0          NO
SML1995Z25       0          0          0          NO
SML1995Z26       0          0          0          NO
SML1995Z19       0          0          0          NO
SML1995Z27       0          0          0          NO
SML3095A09       0          0          0          NO
SML3095A12       0          0          0          NO
SML2095W07       0          0          0          NO