;; SWMM5 .inp converted from XPSWMM .xp file
;; Generated by XPSWMM Card Reader
;; Source format: XP_CARD | Original title: (none)

[TITLE]
;;Project Title/Notes
Converted from XPSWMM .xp file

[OPTIONS]
FLOW_UNITS           CFS
INFILTRATION         HORTON
FLOW_ROUTING         DYNWAVE
LINK_OFFSETS         DEPTH
MIN_SLOPE            0.0
ALLOW_PONDING        NO
SKIP_STEADY_STATE    NO
ROUTING_STEP         00:00:60
VARIABLE_STEP        0.75
INERTIAL_DAMPING     PARTIAL
NORMAL_FLOW_LIMITED  BOTH
MAX_TRIALS           100
HEAD_TOLERANCE       0.00033

[JUNCTIONS]
;;Name           Elev       MaxDepth   InitDepth  SurDepth   Aponded
;;-------------- ---------- ---------- ---------- ---------- ----------
296              860.00     0          0.05       0          0
295              860.00     0          0          0          0
294              860.00     0          0          0          0
293              860.00     0          0          0          0
291              860.00     0          0          0          0
288              860.00     0          0          0          0
286              860.00     0          0          0          0
283              860.00     0          0          0          0
281              860.00     0          0          0          0
204              858.35     0          0.05       0          0
300              860.00     0          0.05       0          0
299              860.00     0          0.05       0          0
298              860.00     0          0.05       0          0
285              860.00     0          0          0          0
277              860.00     0          0          0          0
7                860.00     0          0          0          0
325              860.00     0          0          0          0
322              860.00     0          0          0          0
321              860.00     0          0          0          0
319              860.00     0          0          0          0
320              860.00     0          0          0          0
318              860.00     0          0          0          0
317              860.00     0          0          0          0
316              860.00     0          0          0          0
315              860.00     0          0          0          0
11               860.00     0          0          0          0
17               860.00     0          0          0          0
3                856.48     0          0          0          0
171              856.02     0          0          0          0
206              858.45     0          0.05       0          0
297              860.00     0          0.05       0          0
19               860.00     0          0          0          0
208c             856.99     0          0          0          0
208d             855.62     0          0          0          0
158              856.79     0          0          0          0
16               860.00     0          0          0          0
20               860.00     0          0          0          0
276              856.25     0          0          0          0
282              860.00     0          0          0          0
278              860.00     0          0          0          0
279              860.00     0          0          0          0
280              860.00     0          0          0          0
210              855.08     0          0.05       0          0
8                860.00     0          0          0          0
6                860.00     0          0          0          0
4                860.00     0          0          0          0
2                860.00     0          0          0          0
9                860.00     0          0          0          0
18               860.00     0          0          0          0
12               860.00     0          0          0          0
14               860.00     0          0          0          0
10               860.00     0          0          0          0
13               860.00     0          0          0          0
292              860.00     0          0          0          0
289              860.00     0          0          0          0
208b             860.00     0          0          0          0
202A             860.00     0          0          0          0
202B             860.00     0          0          0          0
east2            865.00     0          0          0          0
east1            865.00     0          0          0          0
146a             860.00     0          0          0          0
136              860.00     0          0          0          0
113              860.00     0          0          0          0
119              860.00     0          0          0          0
203              860.00     0          0          0          0
264              860.00     0          0          0          0
265              860.00     0          0          0          0
266              860.00     0          0.10       0          0
267              860.00     0          0          0          0
216              860.00     0          0.10       0          0
217              860.00     0          0.10       0          0
219              860.00     0          0          0          0

[STORAGE]
;;Name           Elev       MaxDepth   InitDepth  Shape      Curve/Params
;;-------------- ---------- ---------- ---------- ---------- ----------
208a             860.00     -4.85      0          FUNCTIONAL 0 0          0

[CONDUITS]
;;Name           From             To               Length     Roughness  InOffset   OutOffset  InitFlow   MaxFlow
;;-------------- ---------------- ---------------- ---------- ---------- ---------- ---------- ---------- ----------
3a               296              295              75.00      0.0140     852.43     852.23     0          0
5a               295              294              40.00      0.0140     852.18     852.06     0          0
7a               294              293              76.00      0.0140     852.06     851.99     0          0
9a               293              291              370.00     0.0140     851.99     851.61     0          0
11a              291              288              364.00     0.0140     851.61     851.25     0          0
13a              288              286              219.00     0.0140     851.25     851.03     0          0
15               286              283              213.00     0.0140     851.03     850.81     0          0
17b              283              281              276.00     0.0140     850.81     850.55     0          0
19a              281              276              75.00      0.0140     850.54     850.25     0          0
23               300              299              68.00      0.0140     852.76     852.66     0          0
25               299              298              88.00      0.0140     852.66     852.53     0          0
26               298              295              230.00     0.0140     852.53     852.18     0          0
28               285              282              309.00     0.0140     850.69     850.55     0          0
35               322              325              500.00     0.0140     852.13     850.71     0          0
37               321              322              295.00     0.0140     852.74     852.46     0          0
44               318              317              225.00     0.0140     853.06     852.96     0          0
46               317              316              115.00     0.0140     852.87     852.48     0          0
50               316              11               418.00     0.0140     852.31     851.41     0          0
52               11               17               245.00     0.0140     851.33     850.99     0          0
54               17               19               122.00     0.0140     850.74     850.66     0          0
56               3                171              581.00     0.0140     850.73     850.69     0          0
58               171              208c             200.00     0.0140     850.52     850.41     0          0
61               297              296              153.00     0.0140     853.20     852.43     0          0
63               19               3                306.00     0.0140     850.72     850.70     0          0
66               208c             208d             461.00     0.0140     850.57     850.12     0          0
68               208d             158              400.00     0.0140     850.12     850.04     0          0
69               158              206              87.00      0.0140     850.04     850.03     0          0
75               276              204              337.00     0.0140     850.15     850.10     0          0
82               279              278              265.00     0.0140     851.97     851.12     0          0
83               278              282              100.00     0.0140     851.02     850.85     0          0
85               280              278              270.00     0.0140     853.51     851.12     0          0
86               7                277              1092.00    0.0140     850.69     850.46     0          0
87               277              276              72.00      0.0140     850.56     850.35     0          0
88               20               16               234.00     0.0140     851.86     851.15     0          0
89               16               17               57.00      0.0140     851.15     850.99     0          0
90               315              316              105.00     0.0140     852.80     852.23     0          0
92               206              210              413.00     0.0140     850.03     849.58     0          0
95               8                6                227.00     0.0140     851.74     851.10     0          0
98               6                3                349.00     0.0140     851.10     850.81     0          0
102              4                3                136.00     0.0140     851.26     850.90     0          0
108              2                3                132.00     0.0140     852.15     851.81     0          0
111              9                18               246.00     0.0140     851.52     851.00     0          0
112              18               19               67.00      0.0140     851.08     850.74     0          0
114              12               11               56.00      0.0140     851.50     851.41     0          0
116              14               11               234.00     0.0140     851.93     851.41     0          0
118              10               11               131.00     0.0140     851.53     851.33     0          0
120              13               11               108.00     0.0140     852.22     851.50     0          0
123              292              289              250.00     0.0140     852.86     852.71     0          0
124              289              288              31.00      0.0140     851.91     851.75     0          0
131              204              206              405.00     0.0140     850.10     850.03     0          0
132              282              281              10.00      0.0140     850.55     850.54     0          0
134              320              319              200.00     0.0140     853.12     852.89     0          0
135              319              321              100.00     0.0140     852.81     852.74     0          0
190              325              285              750.00     0.0140     850.71     850.69     0          0
192              east1            east2            100.00     0.0140     857.25     857.24     0          0
194              210              146a             474.00     0.0140     849.58     849.53     0          0
198              136              113              890.00     0.0140     849.12     848.79     0          0
200              113              119              180.00     0.0140     848.79     848.52     0          0
202              119              203              602.00     0.0140     848.52     848.29     0          0
204A             203              264              286.00     0.0140     848.29     847.90     0          0
206A             264              265              495.00     0.0140     847.90     847.76     0          0
208              265              266              596.00     0.0140     847.76     847.10     0          0
210A             266              267              195.00     0.0140     847.10     846.97     0          0
212              267              216              86.00      0.0140     846.97     846.80     0          0
213              146a             136              484.00     0.0140     849.53     849.12     0          0
218              216              217              50.00      0.0140     846.80     846.60     0          0
220              219              216              50.00      0.0140     846.70     846.60     0          0

[ORIFICES]
;;Name           From             To               Type       Offset     Qcoeff     Gated    CloseTime
;;-------------- ---------------- ---------------- ---------- ---------- ---------- -------- ----------
137              208a             9                SIDE       0          0.650      NO       0
138              208a             20               SIDE       0          0.650      NO       0
139              208a             12               SIDE       0          0.650      NO       0
140              208a             13               SIDE       0          0.650      NO       0
141              208a             14               SIDE       0          0.650      NO       0
142              208a             10               SIDE       0          0.650      NO       0
144              208b             4                SIDE       0          0.650      NO       0
145              208b             2                SIDE       0          0.650      NO       0
146              208b             8                SIDE       0          0.650      NO       0
148              208a             16               SIDE       0          0.650      NO       0
149              208a             18               SIDE       0          0.650      NO       0
152              208b             7                SIDE       0          0.650      NO       0
154              202A             300              SIDE       0          0.650      NO       0
156              202A             298              SIDE       0          0.650      NO       0
157              202A             297              SIDE       0          0.650      NO       0
159              202A             295              SIDE       0          0.650      NO       0
161              202A             293              SIDE       0          0.650      NO       0
162              202A             291              SIDE       0          0.650      NO       0
163              202A             288              SIDE       0          0.650      NO       0
165              202A             292              SIDE       0          0.650      NO       0
168              202A             286              SIDE       0          0.650      NO       0
169              202A             283              SIDE       0          0.650      NO       0
170              202B             277              SIDE       0          0.650      NO       0
171              202B             285              SIDE       0          0.650      NO       0
172              202B             280              SIDE       0          0.650      NO       0
173              202B             278              SIDE       0          0.650      NO       0
174              202B             279              SIDE       0          0.650      NO       0
176              east2            318              SIDE       0          0.650      NO       0
178              east2            315              SIDE       0          0.650      NO       0
179              east2            317              SIDE       0          0.650      NO       0
184              east2            316              SIDE       0          0.650      NO       0
186              east1            322              SIDE       0          0.650      NO       0
187              east1            321              SIDE       0          0.650      NO       0
188              east1            319              SIDE       0          0.650      NO       0
189              east1            320              SIDE       0          0.650      NO       0

[XSECTIONS]
;;Link           Shape        Geom1      Geom2      Geom3      Geom4      Barrels
;;-------------- ------------ ---------- ---------- ---------- ---------- ----------
3a               CIRCULAR     1.25       0          0          0          1
5a               CIRCULAR     1.25       0          0          0          1
7a               CIRCULAR     2.00       0          0          0          1
9a               CIRCULAR     2.00       0          0          0          1
11a              CIRCULAR     2.00       0          0          0          1
13a              CIRCULAR     2.00       0          0          0          1
15               CIRCULAR     2.00       0          0          0          1
17b              CIRCULAR     2.00       0          0          0          1
19a              CIRCULAR     2.00       0          0          0          1
23               CIRCULAR     1.00       0          0          0          1
25               CIRCULAR     1.00       0          0          0          1
26               CIRCULAR     1.25       0          0          0          1
28               CIRCULAR     1.50       0          0          0          1
35               CIRCULAR     1.25       0          0          0          1
37               CIRCULAR     1.25       0          0          0          1
44               CIRCULAR     1.00       0          0          0          1
46               CIRCULAR     1.00       0          0          0          1
50               CIRCULAR     1.00       0          0          0          1
52               CIRCULAR     1.25       0          0          0          1
54               CIRCULAR     1.50       0          0          0          1
56               CIRCULAR     2.00       0          0          0          1
58               CIRCULAR     2.50       0          0          0          1
61               CIRCULAR     1.00       0          0          0          1
63               CIRCULAR     1.50       0          0          0          1
66               CIRCULAR     2.50       0          0          0          1
68               CIRCULAR     2.50       0          0          0          1
69               CIRCULAR     3.00       0          0          0          1
75               CIRCULAR     2.00       0          0          0          1
82               CIRCULAR     1.00       0          0          0          1
83               CIRCULAR     1.00       0          0          0          1
85               CIRCULAR     1.00       0          0          0          1
86               CIRCULAR     2.00       0          0          0          1
87               CIRCULAR     2.00       0          0          0          1
88               CIRCULAR     1.00       0          0          0          1
89               CIRCULAR     1.00       0          0          0          1
90               CIRCULAR     1.00       0          0          0          1
92               CIRCULAR     3.50       0          0          0          1
95               CIRCULAR     1.00       0          0          0          1
98               CIRCULAR     1.50       0          0          0          1
102              CIRCULAR     1.00       0          0          0          1
108              CIRCULAR     1.00       0          0          0          1
111              CIRCULAR     1.25       0          0          0          1
112              CIRCULAR     1.25       0          0          0          1
114              CIRCULAR     1.00       0          0          0          1
116              CIRCULAR     1.00       0          0          0          1
118              CIRCULAR     1.25       0          0          0          1
120              CIRCULAR     1.00       0          0          0          1
123              CIRCULAR     1.00       0          0          0          1
124              CIRCULAR     1.00       0          0          0          1
131              CIRCULAR     3.00       0          0          0          1
132              CIRCULAR     2.00       0          0          0          1
134              CIRCULAR     1.25       0          0          0          1
135              CIRCULAR     1.25       0          0          0          1
190              CIRCULAR     1.50       0          0          0          1
192              CIRCULAR     5.00       0          0          0          10
194              CIRCULAR     4.00       0          0          0          1
198              CIRCULAR     4.50       0          0          0          1
200              CIRCULAR     4.50       0          0          0          1
202              CIRCULAR     4.50       0          0          0          1
204A             CIRCULAR     5.00       0          0          0          1
206A             CIRCULAR     5.00       0          0          0          1
208              CIRCULAR     5.00       0          0          0          1
210A             CIRCULAR     5.00       0          0          0          1
212              CIRCULAR     5.00       0          0          0          1
213              CIRCULAR     4.50       0          0          0          1
218              IRREGULAR    12.00      0          0          0          1
220              IRREGULAR    11.00      0          0          0          1
137              RECT_CLOSED  0          0          0          0          
138              RECT_CLOSED  0          0          0          0          
139              RECT_CLOSED  0          0          0          0          
140              RECT_CLOSED  0          0          0          0          
141              RECT_CLOSED  0          0          0          0          
142              RECT_CLOSED  0          0          0          0          
144              RECT_CLOSED  0          0          0          0          
145              RECT_CLOSED  0          0          0          0          
146              RECT_CLOSED  0          0          0          0          
148              RECT_CLOSED  0          0          0          0          
149              RECT_CLOSED  0          0          0          0          
152              RECT_CLOSED  0          0          0          0          
154              RECT_CLOSED  0          0          0          0          
156              RECT_CLOSED  0          0          0          0          
157              RECT_CLOSED  0          0          0          0          
159              RECT_CLOSED  0          0          0          0          
161              RECT_CLOSED  0          0          0          0          
162              RECT_CLOSED  0          0          0          0          
163              RECT_CLOSED  0          0          0          0          
165              RECT_CLOSED  0          0          0          0          
168              RECT_CLOSED  0          0          0          0          
169              RECT_CLOSED  0          0          0          0          
170              RECT_CLOSED  0          0          0          0          
171              RECT_CLOSED  0          0          0          0          
172              RECT_CLOSED  0          0          0          0          
173              RECT_CLOSED  0          0          0          0          
174              RECT_CLOSED  0          0          0          0          
176              RECT_CLOSED  0          0          0          0          
178              RECT_CLOSED  0          0          0          0          
179              RECT_CLOSED  0          0          0          0          
184              RECT_CLOSED  0          0          0          0          
186              RECT_CLOSED  0          0          0          0          
187              RECT_CLOSED  0          0          0          0          
188              RECT_CLOSED  0          0          0          0          
189              RECT_CLOSED  0          0          0          0          

[LOSSES]
;;Link           Inlet      Outlet     Average    Flap Gate
;;-------------- ---------- ---------- ---------- ----------
3a               0          0          0          NO
5a               0          0          0          NO
7a               0          0          0          NO
9a               0          0          0          NO
11a              0          0          0          NO
13a              0          0          0          NO
15               0          0          0          NO
17b              0          0          0          NO
19a              0          0          0          NO
23               0          0          0          NO
25               0          0          0          NO
26               0          0          0          NO
28               0          0          0          NO
35               0          0          0          NO
37               0          0          0          NO
44               0          0          0          NO
46               0          0          0          NO
50               0          0          0          NO
52               0          0          0          NO
54               0          0          0          NO
56               0          0          0          NO
58               0          0          0          NO
61               0          0          0          NO
63               0          0          0          NO
66               0          0          0          NO
68               0          0          0          NO
69               0          0          0          NO
75               0          0          0          NO
82               0          0          0          NO
83               0          0          0          NO
85               0          0          0          NO
86               0          0          0          NO
87               0          0          0          NO
88               0          0          0          NO
89               0          0          0          NO
90               0          0          0          NO
92               0          0          0          NO
95               0          0          0          NO
98               0          0          0          NO
102              0          0          0          NO
108              0          0          0          NO
111              0          0          0          NO
112              0          0          0          NO
114              0          0          0          NO
116              0          0          0          NO
118              0          0          0          NO
120              0          0          0          NO
123              0          0          0          NO
124              0          0          0          NO
131              0          0          0          NO
132              0          0          0          NO
134              0          0          0          NO
135              0          0          0          NO
190              0          0          0          NO
192              0          0          0          NO
194              0          0          0          NO
198              0          0          0          NO
200              0          0          0          NO
202              0          0          0          NO
204A             0          0          0          NO
206A             0          0          0          NO
208              0          0          0          NO
210A             0          0          0          NO
212              0          0          0          NO
213              0          0          0          NO
218              0          0          0          NO
220              0          0          0          NO

[COORDINATES]
;;Node           X-Coord            Y-Coord
;;-------------- ------------------ ------------------
296              44.50              7.38              
295              59.51              4.48              
294              70.83              11.34             
293              69.78              21.63             
291              60.04              31.39             
288              73.20              39.30             
286              51.87              55.39             
283              29.23              46.68             
281              23.96              68.05             
204              50.03              91.78             
300              24.22              23.74             
299              14.74              17.94             
298              24.22              0.26              
285              71.89              85.46             
277              35.81              73.32             
7                11.85              76.22             
325              75.05              54.86             
322              89.00              67.52             
321              95.32              83.08             
319              95.06              103.92            
320              91.11              130.56            
318              67.94              102.07            
317              67.94              113.41            
316              66.36              125.81            
315              77.15              140.58            
11               52.40              111.57            
17               40.29              114.20            
3                11.32              130.82            
171              28.44              112.89            
206              59.77              91.79             
297              35.28              6.07              
19               23.70              124.75            