;; SWMM5 .inp converted from XPSWMM .xp file
;; Generated by XPSWMM Card Reader
;; Source format: XP_CARD | Original title: Beauport/Montmorency la falaise - aucune perte de charge locale

[TITLE]
;;Project Title/Notes
Beauport/Montmorency la falaise - aucune perte de charge locale

[OPTIONS]
FLOW_UNITS           CMS
INFILTRATION         HORTON
FLOW_ROUTING         DYNWAVE
LINK_OFFSETS         DEPTH
MIN_SLOPE            0.0
ALLOW_PONDING        NO
SKIP_STEADY_STATE    NO
ROUTING_STEP         00:00:02
VARIABLE_STEP        0.75
INERTIAL_DAMPING     NONE
NORMAL_FLOW_LIMITED  BOTH
MAX_TRIALS           30

[JUNCTIONS]
;;Name           Elev       MaxDepth   InitDepth  SurDepth   Aponded
;;-------------- ---------- ---------- ---------- ---------- ----------
982              21.00      0          0          0          0
357              7.22       0          0          0          0
359              5.69       0          0.11       0          0
361              5.57       0          0.43       0          0
363              5.38       0          0.47       0          0
829              4.97       0          2.35       0          0
719              4.72       0          1.45       0          0
721              4.82       0          1.85       0          0
723              4.85       0          1.86       0          0
725              4.88       0          1.88       0          0
727              4.85       0          1.95       0          0
819              4.72       0          1.45       0          0
831              4.88       0          2.40       0          0
833              5.64       0          2.87       0          0

[CONDUITS]
;;Name           From             To               Length     Roughness  InOffset   OutOffset  InitFlow   MaxFlow
;;-------------- ---------------- ---------------- ---------- ---------- ---------- ---------- ---------- ----------
98257            982              357              20.80      0.0130     3.90       3.70       0          0
35759            45759            359              25.50      0.0130     0          0.16       0          0
35961            45961            361              70.90      0.0130     0          0.27       0          0
36163            46163            363              29.20      0.0130     0          0.03       0          0
36329            46329            829              40.00      0.0130     0          1.38       0          0
71921            719              721              97.50      0.0130     1.45       1.35       0          0
72123            721              723              9.10       0.0130     1.05       1.04       0          0
72325            723              725              18.30      0.0130     1.04       1.02       0          0
72527            725              727              70.10      0.0130     1.02       0.95       0          0
72729            82729            829              88.40      0.0130     0          0.31       0          0
81921            819              721              97.50      0.0130     1.45       1.35       0          0
82127            721              727              97.50      0.0130     1.05       0.95       0          0
82931            829              831              57.90      0.0130     0.55       0.50       0          0
83133            831              833              469.00     0.0130     0.50       0.03       0          0

[XSECTIONS]
;;Link           Shape        Geom1      Geom2      Geom3      Geom4      Barrels
;;-------------- ------------ ---------- ---------- ---------- ---------- ----------
98257            CIRCULAR     1.20       0          0          0          1
35759            CIRCULAR     1.20       0          0          0          1
35961            CIRCULAR     1.20       0          0          0          1
36163            CIRCULAR     1.20       0          0          0          1
36329            CIRCULAR     1.20       0          0          0          1
71921            CIRCULAR     2.10       0          0          0          1
72123            CIRCULAR     2.40       0          0          0          1
72325            CIRCULAR     2.40       0          0          0          1
72527            CIRCULAR     2.40       0          0          0          1
72729            CIRCULAR     2.40       0          0          0          1
81921            CIRCULAR     2.10       0          0          0          1
82127            CIRCULAR     2.40       0          0          0          1
82931            RECT_CLOSED  2.74       4.27       0          0          1
83133            RECT_CLOSED  2.74       4.27       0          0          1

[LOSSES]
;;Link           Inlet      Outlet     Average    Flap Gate
;;-------------- ---------- ---------- ---------- ----------
98257            0          0          0          NO
35759            0          0          0          NO
35961            0          0          0          NO
36163            0          0          0          NO
36329            0          0          0          NO
71921            0          0          0          NO
72123            0          0          0          NO
72325            0          0          0          NO
72527            0          0          0          NO
72729            0          0          0          NO
81921            0          0          0          NO
82127            0          0          0          NO
82931            0          0          0          NO
83133            0          0          0          NO

[COORDINATES]
;;Node           X-Coord            Y-Coord
;;-------------- ------------------ ------------------
982              336.80             -8.94             
357              356.80             -8.94             
359              376.80             -8.94             
361              396.80             -8.94             
363              416.80             -8.94             
829              439.31             17.27             
719              441.58             116.57            
721              441.43             76.79             
723              423.12             67.35             
725              423.46             48.56             
727              440.27             42.35             
819              422.79             109.74            
831              449.77             7.00              
833              462.77             -14.02            

[MAP]
DIMENSIONS 336.80 -14.02 462.77 116.57
Units      None

[REPORT]
INPUT            YES
SUBCATCHMENTS    ALL
NODES            ALL
LINKS            ALL



