;; SWMM5 .inp converted from XPSWMM .xp file
;; Generated by XPSWMM Card Reader
;; Source format: XP_CARD | Original title: 3OTH AVENUE STORM TRUNK AND BASIN HYDRAULIC EVALUATION

[TITLE]
;;Project Title/Notes
3OTH AVENUE STORM TRUNK AND BASIN HYDRAULIC EVALUATION

[OPTIONS]
FLOW_UNITS           CMS
INFILTRATION         HORTON
FLOW_ROUTING         DYNWAVE
LINK_OFFSETS         DEPTH
MIN_SLOPE            0.0
ALLOW_PONDING        NO
SKIP_STEADY_STATE    NO
ROUTING_STEP         00:00:10
VARIABLE_STEP        0.75
INERTIAL_DAMPING     NONE
NORMAL_FLOW_LIMITED  BOTH
MAX_TRIALS           30

[JUNCTIONS]
;;Name           Elev       MaxDepth   InitDepth  SurDepth   Aponded
;;-------------- ---------- ---------- ---------- ---------- ----------
801              707.44     0          0          0          0
802              707.13     0          0          0          0
8200             705.91     0          0          0          0
82001            703.48     0          0          0          0
803              702.56     0          0          0          0
811              701.34     0          0          0          0
804              712.92     0          0          0          0
805              710.79     0          0          0          0
806              711.10     0          0          0          0
807              709.88     0          0          0          0
8071             708.66     0          0          0          0
8072             708.35     0          0          0          0
808              708.05     0          0          0          0
809              708.05     0          0          0          0
810              705.76     0          0          0          0
7101             704.39     0          0          0          0
7102             702.56     0          0          0          0
8201             704.54     0          0          0          0
82011            704.39     0          0          0          0
8202             703.93     0          0          0          0
82021            701.95     0          0          0          0
8203             699.36     0          0          0          0
812              710.79     0          0          0          0
813              709.27     0          0          0          0
815              705.91     0          0          0          0
814              705.61     0          0          0          0
816              704.70     0          0          0          0
817              702.56     0          0          0          0
818              702.26     0          0          0          0
819              700.43     0          0          0          0
820              699.51     0          0          0          0
8204             696.77     0          0          0          0
821              699.51     0          0          0          0
822              697.68     0          0          0          0
82041            695.25     0          0          0          0
80281            692.96     0          0          0          0
823              703.17     0          0          0          0
824              700.43     0          0          0          0
8241             697.99     0          0          0          0
825              695.86     0          0          0          0
826              695.25     0          0          0          0
827              694.03     0          0          0          0
828              693.72     0          0          0          0
8392             691.89     0          0          0          0
829              703.48     0          0          0          0
8291             701.65     0          0          0          0
830              699.82     0          0          0          0
833              694.03     0          0          0          0
831              694.64     0          0          0          0
832              693.11     0          0          0          0
834              691.28     0          0          0          0
839              692.20     0          0          0          0
835              693.11     0          0          0          0
836              692.20     0          0          0          0
837              692.20     0          0          0          0
8371             691.89     0          0          0          0
8372             691.89     0          0          0          0
838              691.89     0          0          0          0
8391             692.81     0          0          0          0
8393             691.44     0          0          0          0
8207             690.98     0          0          0          0
8209             688.85     0          0          0          0
843              688.69     0          0          0          0
8210             709.27     0          0          0          0
82101            705.30     0          0          0          0
8212             704.39     0          0          0          0
8211             705.30     0          0          0          0
82121            702.56     0          0          0          0
8215             699.51     0          0          0          0
8213             702.41     0          0          0          0
82131            702.87     0          0          0          0
8214             700.12     0          0          0          0
8216             695.40     0          0          0          0
82171            694.64     0          0          0          0
8217             694.64     0          0          0          0
8411             691.89     0          0          0          0
840              696.16     0          0          0          0
8401             694.18     0          0          0          0
841              692.50     0          0          0          0
8218             690.98     0          0          0          0
8222             694.33     0          0          0          0
8219             694.79     0          0          0          0
82191            693.72     0          0          0          0
8220             692.81     0          0          0          0
8221             693.72     0          0          0          0
82211            693.11     0          0          0          0
82221            692.81     0          0          0          0
842              689.61     0          0          0          0
8421             690.06     0          0          0          0
8431             689.91     0          0          0          0
8491             689.76     0          0          0          0
844              694.18     0          0          0          0
846              692.35     0          0          0          0
845              692.50     0          0          0          0
8461             690.98     0          0          0          0
847              690.92     0          0          0          0
8471             690.43     0          0          0          0
848              690.22     0          0          0          0
849              691.59     0          0          0          0
8492             687.93     0          0          0          0
8223             685.80     0          0          0          0
850              688.85     0          0          0          0
851              688.24     0          0          0          0
852              688.69     0          0          0          0
8521             686.25     0          0          0          0
8522             685.95     0          0          0          0
853              685.80     0          0          0          0
854              686.41     0          0          0          0
855              687.32     0          0          0          0
856              684.88     0          0          0          0
r1               683.82     0          0          0          0
857              685.80     0          0          0          0
8571             686.41     0          0          0          0
8572             683.82     0          0          0          0
858              683.36     0          0          0          0
860              681.53     0          0          0          0
859              682.75     0          0          0          0
8591             682.44     0          0          0          0
8601             681.84     0          0          0          0
8602             682.44     0          0          0          0
8603             683.05     0          0          0          0
861              682.14     0          0          0          0
862              691.28     0          0          0          0
863              690.06     0          0          0          0
864              688.85     0          0          0          0
865              690.37     0          0          0          0
866              687.63     0          0          0          0
870              687.02     0          0          0          0
867              689.46     0          0          0          0
8671             688.85     0          0          0          0
868              687.93     0          0          0          0
871              685.49     0          0          0          0
872              684.88     0          0          0          0
8811             684.88     0          0          0          0
873              689.46     0          0          0          0
874              689.15     0          0          0          0
8741             690.37     0          0          0          0
875              690.37     0          0          0          0
876              689.15     0          0          0          0
877              686.71     0          0          0          0
8771             687.32     0          0          0          0
8772             687.02     0          0          0          0
878              686.41     0          0          0          0
879              686.10     0          0          0          0
8791             686.10     0          0          0          0
880              686.41     0          0          0          0
8801             687.02     0          0          0          0
8802             687.32     0          0          0          0
8803             686.71     0          0          0          0
881              686.10     0          0          0          0
882              685.34     0          0          0          0
8821             684.58     0          0          0          0
8822             685.04     0          0          0          0
8823             685.19     0          0          0          0
8824             682.39     0          0          0          0
8224             681.84     0          0          0          0
82241            681.99     0          0          0          0
883              700.89     0          0          0          0
884              698.60     0          0          0          0
8841             695.09     0          0          0          0
8842             694.48     0          0          0          0
8843             690.98     0          0          0          0
7842             688.54     0          0          0          0
8844             689.15     0          0          0          0
885              688.39     0          0          0          0
886              688.39     0          0          0          0
8861             688.69     0          0          0          0
887              690.37     0          0          0          0
888              690.52     0          0          0          0
889              686.71     0          0          0          0
8891             685.95     0          0          0          0
890              684.27     0          0          0          0
8901             683.82     0          0          0          0
8902             683.05     0          0          0          0
8911             682.90     0          0          0          0
891              683.51     0          0          0          0
8912             683.36     0          0          0          0
892              683.97     0          0          0          0
8921             684.27     0          0          0          0
893              682.60     0          0          0          0
8931             682.14     0          0          0          0
8932             682.90     0          0          0          0
894              682.29     0          0          0          0
8941             683.21     0          0          0          0
8942             681.38     0          0          0          0
896              679.85     0          0          0          0
895              680.46     0          0          0          0
8951             679.70     0          0          0          0
8952             679.85     0          0          0          0
8953             679.70     0          0          0          0
81053            681.23     0          0          0          0
897              696.16     0          0          0          0
898              690.37     0          0          0          0
8981             688.85     0          0          0          0
899              687.32     0          0          0          0
8991             685.34     0          0          0          0
8992             685.19     0          0          0          0
8100             684.88     0          0          0          0
8101             685.49     0          0          0          0
8102             685.65     0          0          0          0
81051            682.75     0          0          0          0
8103             688.85     0          0          0          0
81031            689.30     0          0          0          0
81032            686.41     0          0          0          0
8104             682.44     0          0          0          0
81041            683.21     0          0          0          0
8105             682.44     0          0          0          0
81052            681.23     0          0          0          0
8106             681.23     0          0          0          0
8107             681.23     0          0          0          0
81081            681.38     0          0          0          0
8108             681.84     0          0          0          0
81102            681.23     0          0          0          0
8109             686.25     0          0          0          0
8110             685.65     0          0          0          0
81101            683.36     0          0          0          0
8111             683.21     0          0          0          0
r3               681.23     0          0          0          0
83041            680.01     0          0          0          0
8300             682.44     0          0          0          0
83001            682.44     0          0          0          0
8301             681.23     0          0          0          0
83011            678.79     0          0          0          0
8302             682.90     0          0          0          0
8303             680.16     0          0          0          0
8304             678.48     0          0          0          0
83042            677.42     0          0          0          0
83202            677.26     0          0          0          0
8305             681.84     0          0          0          0
8306             682.75     0          0          0          0
8308             683.36     0          0          0          0
8307             684.43     0          0          0          0
8309             683.36     0          0          0          0
8310             680.92     0          0          0          0
8313             680.01     0          0          0          0
8311             680.46     0          0          0          0
83111            680.31     0          0          0          0
83112            680.16     0          0          0          0
8312             680.31     0          0          0          0
83121            679.85     0          0          0          0
8315             680.77     0          0          0          0
8314             680.62     0          0          0          0
83141            679.70     0          0          0          0
8316             680.01     0          0          0          0
8318             678.03     0          0          0          0
8317             677.26     0          0          0          0
83171            676.96     0          0          0          0
83172            676.20     0          0          0          0
83173            677.57     0          0          0          0
8319             676.35     0          0          0          0
8320             676.50     0          0          0          0
83201            676.65     0          0          0          0
B4               675.74     0          0          0          0
8321             668.42     0          0          0          0
8323             667.81     0          0          0          0
8322             669.64     0          0          0          0
8324             667.51     0          0          0          0
8328             669.64     0          0          0          0
8325             676.04     0          0          0          0
8326             674.82     0          0          0          0
8327             673.30     0          0          0          0
83281            670.71     0          0          0          0
8332             671.78     0          0          0          0
8329             673.00     0          0          0          0
8330             671.47     0          0          0          0
8331             673.00     0          0          0          0
83321            673.00     0          0          0          0
83322            670.25     0          0          0          0
83323            669.64     0          0          0          0
83324            666.60     0          0          0          0
8335             664.77     0          0          0          0
8333             675.43     0          0          0          0
8334             672.54     0          0          0          0
83341            676.50     0          0          0          0
83342            673.45     0          0          0          0
83343            670.41     0          0          0          0
83431            670.56     0          0          0          0
8336             672.23     0          0          0          0
8337             672.69     0          0          0          0
8339             674.22     0          0          0          0
8338             676.65     0          0          0          0
83381            675.74     0          0          0          0
8340             670.25     0          0          0          0
8341             672.23     0          0          0          0
83422            672.54     0          0          0          0
8342             671.62     0          0          0          0
83421            672.23     0          0          0          0
8343             670.80     0          0          0          0
8351             671.78     0          0          0          0
8344             676.35     0          0          0          0
8345             677.26     0          0          0          0
83461            676.20     0          0          0          0
8346             676.65     0          0          0          0
8347             674.82     0          0          0          0
8348             673.61     0          0          0          0
8349             672.39     0          0          0          0
8350             672.23     0          0          0          0
83501            672.08     0          0          0          0
83511            673.45     0          0          0          0
83512            675.13     0          0          0          0
83561            677.57     0          0          0          0
8352             678.03     0          0          0          0
8353             676.65     0          0          0          0
83531            675.74     0          0          0          0
83532            676.65     0          0          0          0
8354             676.35     0          0          0          0
8355             675.59     0          0          0          0
83551            677.42     0          0          0          0
8356             675.28     0          0          0          0
83562            676.65     0          0          0          0
83614            675.28     0          0          0          0
83615            674.06     0          0          0          0
82622            674.82     0          0          0          0
8250             676.04     0          0          0          0
8252             675.89     0          0          0          0
8251             676.35     0          0          0          0
8253             675.59     0          0          0          0
8254             674.98     0          0          0          0
82541            673.45     0          0          0          0
8262             674.67     0          0          0          0
8255             678.33     0          0          0          0
82551            678.18     0          0          0          0
82552            677.26     0          0          0          0
8258             676.04     0          0          0          0
8256             679.09     0          0          0          0
82561            678.33     0          0          0          0
8257             677.11     0          0          0          0
8259             676.35     0          0          0          0
8260             675.59     0          0          0          0
8261             674.06     0          0          0          0
82621            674.67     0          0          0          0
82791            674.82     0          0          0          0
8263             673.30     0          0          0          0
8264             673.30     0          0          0          0
8265             673.30     0          0          0          0
8266             673.91     0          0          0          0
8267             673.91     0          0          0          0
82671            674.82     0          0          0          0
8268             672.08     0          0          0          0
8269             672.39     0          0          0          0
82691            672.84     0          0          0          0
82692            673.91     0          0          0          0
8270             674.67     0          0          0          0
8279             674.82     0          0          0          0
8271             677.72     0          0          0          0
8272             679.09     0          0          0          0
8273             677.87     0          0          0          0
82731            677.57     0          0          0          0
8274             677.26     0          0          0          0
8275             675.13     0          0          0          0
8276             674.82     0          0          0          0
8278             675.89     0          0          0          0
8277             674.22     0          0          0          0
82771            675.74     0          0          0          0
82792            675.74     0          0          0          0
82793            674.22     0          0          0          0
82794            672.69     0          0          0          0
82861            670.56     0          0          0          0
8280             669.03     0          0          0          0
8282             669.95     0          0          0          0
8281             669.80     0          0          0          0
8283             676.81     0          0          0          0
8284             676.35     0          0          0          0
8286             673.15     0          0          0          0
8285             673.61     0          0          0          0
82891            667.97     0          0          0          0
8287             671.32     0          0          0          0
8288             666.90     0          0          0          0
8289             667.66     0          0          0          0
82893            638.93     0          0          0          0
85               654.10     0          0          0          0
5                669.64     0          0          0          0
84               671.17     0          0          0          0
4                672.69     0          0          0          0
3                674.52     0          0          0          0
82               677.26     0          0          0          0
2                681.68     0          0          0          0
8157             676.35     0          0          0          0
8162             673.30     0          0          0          0
81621            672.54     0          0          0          0
81622            672.69     0          0          0          0
8158             673.30     0          0          0          0
8159             673.30     0          0          0          0
8161             674.52     0          0          0          0
8160             670.86     0          0          0          0
81601            672.08     0          0          0          0
81611            674.67     0          0          0          0
81612            679.09     0          0          0          0
1                627.58     0          0          0          0
T13              675.20     0          0          0          0
T12              679.50     0          0          0          0
T10              678.25     0          0          0          0
T9               677.58     0          0          0          0
T8               676.53     0          0          0          0
T3               677.00     0          0          0          0
T7               676.80     0          0          0          0
T6               676.40     0          0          0          0
T5               677.60     0          0          0          0
T4               676.20     0          0          0          0
T11              678.25     0          0          0          0
T1               678.20     0          0          0          0
T2               678.10     0          0          0          0
T14              678.73     0          0          0          0
T15              679.40     0          0          0          0
T16              678.00     0          0          0          0
T17              677.80     0          0          0          0
T18              677.30     0          0          0          0
T19              676.52     0          0          0          0
T20              675.33     0          0          0          0
T21              668.52     0          0          0          0
T30              665.12     0          0          0          0
T31              665.26     0          0          0          0
T32              665.91     0          0          0          0
T33              669.09     0          0          0          0
T23              672.14     0          0          0          0
T24              671.80     0          0          0          0
T25              670.71     0          0          0          0
T26              671.80     0          0          0          0
T27              674.30     0          0          0          0
T28              677.26     0          0          0          0
T29              674.22     0          0          0          0
T34              672.40     0          0          0          0
T35              672.63     0          0          0          0
T37              672.00     0          0          0          0
T36              680.00     0          0          0          0
T371             671.95     0          0          0          0
T131             674.90     0          0          0          0
T40              670.26     0          0          0          0
T38              669.30     0          0          0          0
T39              670.88     0          0          0          0
N1               694.00     0          0          0          0
N2               688.60     0          0          0          0
L2               684.50     0          0          0          0
m4               691.50     0          0          0          0
m5               691.40     0          0          0          0
m7               692.20     0          0          0          0
m8               692.00     0          0          0          0
m9               690.70     0          0          0          0
m10              690.70     0          0          0          0
m11              691.80     0          0          0          0
m12              690.00     0          0          0          0
m13              686.70     0          0          0          0
m14              686.41     0          0          0          0
m1               690.89     0          0          0          0
m2               690.89     0          0          0          0
m3               691.30     0          0          0          0
m6               691.41     0          0          0          0
c10              686.00     0          0          0          0
r2               681.23     0          0          0          0
B1               675.51     0          0          0          0
B2               675.51     0          0          0          0
B3               675.91     0          0          0          0
B5               675.47     0          0          0          0
B6               674.62     0          0          0          0
B7               675.51     0          0          0          0
X1               674.16     0          0          0          0
w1               637.59     0          0          0          0
w2               637.56     0          0          0          0
L1               683.60     0          0          0          0
L3               683.50     0          0          0          0
L4               683.10     0          0          0          0
L5               682.80     0          0          0          0
H1               691.60     0          0          0          0
H2               694.50     0          0          0          0