;; SWMM5 .inp converted from XPSWMM .xp file
;; Generated by XPSWMM Card Reader
;; Source format: XP_CARD | Original title: (none)

[TITLE]
;;Project Title/Notes
Converted from XPSWMM .xp file

[OPTIONS]
FLOW_UNITS           CFS
INFILTRATION         HORTON
FLOW_ROUTING         DYNWAVE
LINK_OFFSETS         DEPTH
MIN_SLOPE            0.0
ALLOW_PONDING        NO
SKIP_STEADY_STATE    NO
ROUTING_STEP         00:00:05
VARIABLE_STEP        0.75
INERTIAL_DAMPING     PARTIAL
NORMAL_FLOW_LIMITED  BOTH
MAX_TRIALS           50

[JUNCTIONS]
;;Name           Elev       MaxDepth   InitDepth  SurDepth   Aponded
;;-------------- ---------- ---------- ---------- ---------- ----------
GidInl1          56.10      0          0          0          0
GidMan1          53.80      0          0          0          0
GidInl3          53.80      0          0          0          0
210              60.00      0          0          0          0
Basin#43         60.00      0          0          0          0
Basin44          60.00      0          0          0          0
FrMan2           60.00      0          0          0          0
FrIn3            60.00      0          0          0          0
FrMan1           60.00      0          0          0          0
FrIn1            60.00      0          0          0          0
FrIn2            60.00      0          0          0          0
ShadMan2         60.00      0          0          0          0
ShadMan1         60.00      0          0          0          0
ShadInl1         60.00      0          0          0          0
ShadInl2         60.00      0          0          0          0
McBerInl1        60.00      0          0          0          0
WilderInl1       60.00      0          0          0          0
McBerInl2        60.00      0          0          0          0
WilderInl2       60.00      0          0          0          0
CaracMan1        60.00      0          0          0          0
Basin45          60.00      0          0          0          0
EllInl1          60.00      0          0          0          0
EllInl2          60.00      0          0          0          0
EllInl4          60.00      0          0          0          0
EllInl3          60.00      0          0          0          0
CaracInl1        60.00      0          0          0          0
CarMan1          60.00      0          0          0          0
CarInl1          60.00      0          0          0          0
CarInl2          60.00      0          0          0          0
CarMan2          60.00      0          0          0          0
CarInl3          60.00      0          0          0          0
CarInl4          60.00      0          0          0          0
CarInl5          60.00      0          0          0          0
EllMan1          60.00      0          0          0          0
LouInl1          60.00      0          0          0          0
LouInl2          60.00      0          0          0          0
EllInl5          60.00      0          0          0          0
OsbornInl1       60.00      0          0          0          0
282              60.00      0          0          0          0
PaliInl1         60.00      0          0          0          0
Basin19          60.00      0          0          0          0
PaliInl2         60.00      0          0          0          0
PaliInl4         60.00      0          0          0          0
PaliInl3         60.00      0          0          0          0
CurtisMan1       60.00      0          0          0          0
CurtisInl1       60.00      0          0          0          0
CurtisInl2       60.00      0          0          0          0
PaliInl11        60.00      0          0          0          0
PaliInl10        60.00      0          0          0          0
PaliInl9         60.00      0          0          0          0
PaliInl8         60.00      0          0          0          0
PaliInl7         60.00      0          0          0          0
PaliInl6         60.00      0          0          0          0
PaliInl5         60.00      0          0          0          0
OsbornInl4       60.00      0          0          0          0
OsbornInl3       60.00      0          0          0          0
OsbornInl2       60.00      0          0          0          0
OsbornInl        60.00      0          0          0          0
OsbornInl0       60.00      0          0          0          0
324              60.00      0          0          0          0
325              60.00      0          0          0          0
OsbornInl5       60.00      0          0          0          0
OsbornInl6       60.00      0          0          0          0
29thInl2         60.00      0          0          0          0
29thInl3         60.00      0          0          0          0
29thMan1         60.00      0          0          0          0
29thInl4         60.00      0          0          0          0
29thInl1         60.00      0          0          0          0
30thMan1         60.00      0          0          0          0
30thInl2         60.00      0          0          0          0
30thInl3         60.00      0          0          0          0
ChelsaMan1       60.00      0          0          0          0
ChelsaMan2       60.00      0          0          0          0
ChelsaMan3       60.00      0          0          0          0
ChelsaMan4       60.00      0          0          0          0
Basin1           60.00      0          0          0          0
ChelsaInl1       60.00      0          0          0          0
ChelsaInl3       60.00      0          0          0          0
ChelsaInl4       0          0          0          0          0
ChelsaMan5       0          0          0          0          0

[CONDUITS]
;;Name           From             To               Length     Roughness  InOffset   OutOffset  InitFlow   MaxFlow
;;-------------- ---------------- ---------------- ---------- ---------- ---------- ---------- ---------- ----------
Giddons15        GidInl1          GidMan1          50.00      0.0140     51.85      49.67      0          0
Giddons18        GidMan1          GidInl3          50.00      0.0140     49.67      49.17      0          0
Giddons24        GidInl3          210              50.00      0.0140     50.00      50.00      0          0
GidBas24         210              Basin#43         50.00      0.0140     50.00      50.00      0          0
BasFri12         Basin44          FrMan2           50.00      0.0140     50.00      50.00      0          0
Frierson1        FrMan2           FrIn3            50.00      0.0140     50.00      50.00      0          0
Frierson2        FrIn3            FrMan1           50.00      0.0140     50.00      50.00      0          0
222              ?                ?                50.00      0.0140     50.00      50.00      0          0
Fr30#2           FrIn1            FrIn2            50.00      0.0140     50.00      50.00      0          0
Fr30#1           FrIn2            Basin44          50.00      0.0140     50.00      50.00      0          0
Shadow24         Basin#43         ShadMan2         50.00      0.0140     50.00      50.00      0          0
Shadow30         ShadMan2         ShadMan1         50.00      0.0140     50.00      50.00      0          0
Shad18.2         ShadInl1         ShadInl2         50.00      0.0140     50.00      50.00      0          0
Shad18.1         ShadInl2         ShadMan1         50.00      0.0140     50.00      50.00      0          0
McBerry30        ShadMan2         McBerInl1        50.00      0.0140     50.00      50.00      0          0
Wilder30         McBerInl1        WilderInl1       50.00      0.0140     50.00      50.00      0          0
McBerry18        McBerInl2        McBerInl1        50.00      0.0140     50.00      50.00      0          0
Wilder18         WilderInl2       WilderInl1       50.00      0.0140     50.00      50.00      0          0
Caracas36        WilderInl1       CaracMan1        50.00      0.0140     50.00      50.00      0          0
Cararas48        CaracMan1        Basin45          50.00      0.0140     50.00      50.00      0          0
Elli18.3         EllInl1          EllInl2          50.00      0.0140     50.00      50.00      0          0
Elli18.1         EllInl4          EllInl3          50.00      0.0140     50.00      50.00      0          0
Elli18.2         EllInl3          EllInl2          50.00      0.0140     50.00      50.00      0          0
Elli24           EllInl2          Basin45          50.00      0.0140     50.00      50.00      0          0
Caracas18        CaracInl1        Basin45          50.00      0.0140     50.00      50.00      0          0
Cararas30        Basin45          CarMan1          50.00      0.0140     50.00      50.00      0          0
Carac36.1        CarMan1          CarInl1          50.00      0.0140     50.00      50.00      0          0
Carac36.2        CarInl1          CarInl2          50.00      0.0140     50.00      50.00      0          0
Carac36.3        CarInl2          CarMan2          50.00      0.0140     50.00      50.00      0          0
Carac36.4        CarMan2          CarInl3          50.00      0.0140     50.00      50.00      0          0
Carac42.1        CarInl3          CarInl4          50.00      0.0140     50.00      50.00      0          0
Carac42.2        CarInl4          CarInl5          50.00      0.0140     50.00      50.00      0          0
Carac42.3        CarInl5          EllMan1          50.00      0.0140     50.00      50.00      0          0
Lou48.1          EllMan1          LouInl1          50.00      0.0140     50.00      50.00      0          0
Lou48.2          LouInl1          LouInl2          50.00      0.0140     50.00      50.00      0          0
Elli18.4         EllInl5          EllMan1          50.00      0.0140     50.00      50.00      0          0
Osborne54        LouInl2          OsbornInl1       50.00      0.0140     50.00      50.00      0          0
Curtis54         OsbornInl1       282              50.00      0.0140     50.00      50.00      0          0
Pali54.1         282              PaliInl1         50.00      0.0140     50.00      50.00      0          0
Pali54.2         PaliInl1         Basin19          50.00      0.0140     50.00      50.00      0          0
289              ?                ?                50.00      0.0140     50.00      50.00      0          0
Pali18           PaliInl4         PaliInl3         50.00      0.0140     50.00      50.00      0          0
Pali27           PaliInl3         PaliInl2         50.00      0.0140     50.00      50.00      0          0
Curtis54.3       CurtisMan1       PaliInl2         50.00      0.0140     50.00      50.00      0          0
Curtis54.2       CurtisInl1       CurtisMan1       50.00      0.0140     50.00      50.00      0          0
Curtis54.1       CurtisInl2       CurtisInl1       50.00      0.0140     50.00      50.00      0          0
Pali36.1         PaliInl11        PaliInl10        50.00      0.0140     50.00      50.00      0          0
Pali36.2         PaliInl10        PaliInl9         50.00      0.0140     50.00      50.00      0          0
Pali36.3         PaliInl9         PaliInl8         50.00      0.0140     50.00      50.00      0          0
Pali36.4         PaliInl8         PaliInl7         50.00      0.0140     50.00      50.00      0          0
Pali42.1         PaliInl7         PaliInl6         50.00      0.0140     50.00      50.00      0          0
Pali42.2         PaliInl6         PaliInl5         50.00      0.0140     50.00      50.00      0          0
Pali42.3         PaliInl5         CurtisInl2       50.00      0.0140     50.00      50.00      0          0
Osborn21.1       OsbornInl4       OsbornInl3       50.00      0.0140     50.00      50.00      0          0
Osborn24.2       OsbornInl3       OsbornInl2       50.00      0.0140     50.00      50.00      0          0
Osborn30.2       OsbornInl2       OsbornInl        50.00      0.0140     50.00      50.00      0          0
Osborn30.1       OsbornInl        OsbornInl0       50.00      0.0140     50.00      50.00      0          0
Osborn36.1       OsbornInl0       CurtisInl2       50.00      0.0140     50.00      50.00      0          0
Osborn18.1       324              325              50.00      0.0140     50.00      50.00      0          0
Osborn24.1       325              OsbornInl0       50.00      0.0140     50.00      50.00      0          0
Osborn18.3       OsbornInl5       OsbornInl6       50.00      0.0140     50.00      50.00      0          0
Osborn18.2       OsbornInl6       OsbornInl0       50.00      0.0140     50.00      50.00      0          0
29th15.2         29thInl2         29thInl3         50.00      0.0140     50.00      50.00      0          0
29th18.1         29thInl3         29thMan1         50.00      0.0140     50.00      50.00      0          0
29th18.2         29thMan1         29thInl4         50.00      0.0140     50.00      50.00      0          0
29th18.3         29thInl4         Basin19          50.00      0.0140     50.00      50.00      0          0
29th15.1         29thInl1         29thInl2         50.00      0.0140     50.00      50.00      0          0
30th36.1         PaliInl1         30thMan1         50.00      0.0140     50.00      50.00      0          0
30th42           30thMan1         30thInl2         50.00      0.0140     50.00      50.00      0          0
30th48           30thInl2         30thInl3         50.00      0.0140     50.00      50.00      0          0
Chelsa54.2       ChelsaMan1       ChelsaMan2       50.00      0.0140     50.00      50.00      0          0
Chelsa54.3       ChelsaMan2       ChelsaMan3       50.00      0.0140     50.00      50.00      0          0
Chelsa54.4       ChelsaMan4       ChelsaMan3       50.00      0.0140     50.00      50.00      0          0
Chelsa60         ChelsaMan3       Basin1           50.00      0.0140     50.00      50.00      0          0
Chelsa18         ChelsaInl1       ChelsaMan1       50.00      0.0140     50.00      50.00      0          0
Chelsa54.1       30thInl3         ChelsaMan1       50.00      0.0140     50.00      50.00      0          0
Chelsa15.1       ChelsaInl3       ChelsaMan2       50.00      0.0140     50.00      50.00      0          0
Chelsa18.1       ChelsaInl4       ChelsaMan5       0          0          0          0          0          0
Chelsa18.2       ChelsaMan5       ChelsaMan4       0          0          0          0          0          0

[XSECTIONS]
;;Link           Shape        Geom1      Geom2      Geom3      Geom4      Barrels
;;-------------- ------------ ---------- ---------- ---------- ---------- ----------
Giddons15        CIRCULAR     2.00       0          0          0          1
Giddons18        CIRCULAR     2.00       0          0          0          1
Giddons24        CIRCULAR     2.00       0          0          0          1
GidBas24         CIRCULAR     2.00       0          0          0          1
BasFri12         CIRCULAR     2.00       0          0          0          1
Frierson1        CIRCULAR     2.00       0          0          0          1
Frierson2        CIRCULAR     2.00       0          0          0          1
222              CIRCULAR     2.00       0          0          0          1
Fr30#2           CIRCULAR     2.00       0          0          0          1
Fr30#1           CIRCULAR     2.00       0          0          0          1
Shadow24         CIRCULAR     2.00       0          0          0          1
Shadow30         CIRCULAR     2.00       0          0          0          1
Shad18.2         CIRCULAR     2.00       0          0          0          1
Shad18.1         CIRCULAR     2.00       0          0          0          1
McBerry30        CIRCULAR     2.00       0          0          0          1
Wilder30         CIRCULAR     2.00       0          0          0          1
McBerry18        CIRCULAR     2.00       0          0          0          1
Wilder18         CIRCULAR     2.00       0          0          0          1
Caracas36        CIRCULAR     2.00       0          0          0          1
Cararas48        CIRCULAR     2.00       0          0          0          1
Elli18.3         CIRCULAR     2.00       0          0          0          1
Elli18.1         CIRCULAR     2.00       0          0          0          1
Elli18.2         CIRCULAR     2.00       0          0          0          1
Elli24           CIRCULAR     2.00       0          0          0          1
Caracas18        CIRCULAR     2.00       0          0          0          1
Cararas30        CIRCULAR     2.00       0          0          0          1
Carac36.1        CIRCULAR     2.00       0          0          0          1
Carac36.2        CIRCULAR     2.00       0          0          0          1
Carac36.3        CIRCULAR     2.00       0          0          0          1
Carac36.4        CIRCULAR     2.00       0          0          0          1
Carac42.1        CIRCULAR     2.00       0          0          0          1
Carac42.2        CIRCULAR     2.00       0          0          0          1
Carac42.3        CIRCULAR     2.00       0          0          0          1
Lou48.1          CIRCULAR     2.00       0          0          0          1
Lou48.2          CIRCULAR     2.00       0          0          0          1
Elli18.4         CIRCULAR     2.00       0          0          0          1
Osborne54        CIRCULAR     2.00       0          0          0          1
Curtis54         CIRCULAR     2.00       0          0          0          1
Pali54.1         CIRCULAR     2.00       0          0          0          1
Pali54.2         CIRCULAR     2.00       0          0          0          1
289              CIRCULAR     2.00       0          0          0          1
Pali18           CIRCULAR     2.00       0          0          0          1
Pali27           CIRCULAR     2.00       0          0          0          1
Curtis54.3       CIRCULAR     2.00       0          0          0          1
Curtis54.2       CIRCULAR     2.00       0          0          0          1
Curtis54.1       CIRCULAR     2.00       0          0          0          1
Pali36.1         CIRCULAR     2.00       0          0          0          1
Pali36.2         CIRCULAR     2.00       0          0          0          1
Pali36.3         CIRCULAR     2.00       0          0          0          1
Pali36.4         CIRCULAR     2.00       0          0          0          1
Pali42.1         CIRCULAR     2.00       0          0          0          1
Pali42.2         CIRCULAR     2.00       0          0          0          1
Pali42.3         CIRCULAR     2.00       0          0          0          1
Osborn21.1       CIRCULAR     2.00       0          0          0          1
Osborn24.2       CIRCULAR     2.00       0          0          0          1
Osborn30.2       CIRCULAR     2.00       0          0          0          1
Osborn30.1       CIRCULAR     2.00       0          0          0          1
Osborn36.1       CIRCULAR     2.00       0          0          0          1
Osborn18.1       CIRCULAR     2.00       0          0          0          1
Osborn24.1       CIRCULAR     2.00       0          0          0          1
Osborn18.3       CIRCULAR     2.00       0          0          0          1
Osborn18.2       CIRCULAR     2.00       0          0          0          1
29th15.2         CIRCULAR     2.00       0          0          0          1
29th18.1         CIRCULAR     2.00       0          0          0          1
29th18.2         CIRCULAR     2.00       0          0          0          1
29th18.3         CIRCULAR     2.00       0          0          0          1
29th15.1         CIRCULAR     2.00       0          0          0          1
30th36.1         CIRCULAR     2.00       0          0          0          1
30th42           CIRCULAR     2.00       0          0          0          1
30th48           CIRCULAR     2.00       0          0          0          1
Chelsa54.2       CIRCULAR     2.00       0          0          0          1
Chelsa54.3       CIRCULAR     2.00       0          0          0          1
Chelsa54.4       CIRCULAR     2.00       0          0          0          1
Chelsa60         CIRCULAR     2.00       0          0          0          1
Chelsa18         CIRCULAR     2.00       0          0          0          1
Chelsa54.1       CIRCULAR     2.00       0          0          0          1
Chelsa15.1       CIRCULAR     2.00       0          0          0          1
Chelsa18.1       CIRCULAR     0          0          0          0          1
Chelsa18.2       CIRCULAR     0          0          0          0          1

[LOSSES]
;;Link           Inlet      Outlet     Average    Flap Gate
;;-------------- ---------- ---------- ---------- ----------
Giddons15        0          0          0          NO
Giddons18        0          0          0          NO
Giddons24        0          0          0          NO
GidBas24         0          0          0          NO
BasFri12         0          0          0          NO
Frierson1        0          0          0          NO
Frierson2        0          0          0          NO
222              0          0          0          NO
Fr30#2           0          0          0          NO
Fr30#1           0          0          0          NO
Shadow24         0          0          0          NO
Shadow30         0          0          0          NO
Shad18.2         0          0          0          NO
Shad18.1         0          0          0          NO
McBerry30        0          0          0          NO
Wilder30         0          0          0          NO
McBerry18        0          0          0          NO
Wilder18         0          0          0          NO
Caracas36        0          0          0          NO
Cararas48        0          0          0          NO
Elli18.3         0          0          0          NO
Elli18.1         0          0          0          NO
Elli18.2         0          0          0          NO
Elli24           0          0          0          NO
Caracas18        0          0          0          NO
Cararas30        0          0          0          NO
Carac36.1        0          0          0          NO
Carac36.2        0          0          0          NO
Carac36.3        0          0          0          NO
Carac36.4        0          0          0          NO
Carac42.1        0          0          0          NO
Carac42.2        0          0          0          NO
Carac42.3        0          0          0          NO
Lou48.1          0          0          0          NO
Lou48.2          0          0          0          NO
Elli18.4         0          0          0          NO
Osborne54        0          0          0          NO
Curtis54         0          0          0          NO
Pali54.1         0          0          0          NO
Pali54.2         0          0          0          NO
289              0          0          0          NO
Pali18           0          0          0          NO
Pali27           0          0          0          NO
Curtis54.3       0          0          0          NO
Curtis54.2       0          0          0          NO
Curtis54.1       0          0          0          NO
Pali36.1         0          0          0          NO
Pali36.2         0          0          0          NO
Pali36.3         0          0          0          NO
Pali36.4         0          0          0          NO
Pali42.1         0          0          0          NO
Pali42.2         0          0          0          NO
Pali42.3         0          0          0          NO
Osborn21.1       0          0          0          NO
Osborn24.2       0          0          0          NO
Osborn30.2       0          0          0          NO
Osborn30.1       0          0          0          NO
Osborn36.1       0          0          0          NO
Osborn18.1       0          0          0          NO
Osborn24.1       0          0          0          NO
Osborn18.3       0          0          0          NO
Osborn18.2       0          0          0          NO
29th15.2         0          0          0          NO
29th18.1         0          0          0          NO
29th18.2         0          0          0          NO
29th18.3         0          0          0          NO
29th15.1         0          0          0          NO
30th36.1         0          0          0          NO
30th42           0          0          0          NO
30th48           0          0          0          NO
Chelsa54.2       0          0          0          NO
Chelsa54.3       0          0          0          NO
Chelsa54.4       0          0          0          NO
Chelsa60         0          0          0          NO
Chelsa18         0          0          0          NO
Chelsa54.1       0          0          0          NO
Chelsa15.1       0          0          0          NO
Chelsa18.1       0          0          0          NO
Chelsa18.2       0          0          0          NO

[COORDINATES]
;;Node           X-Coord            Y-Coord
;;-------------- ------------------ ------------------
GidInl1          7.64               117.64            
GidMan1          7.64               127.64            
GidInl3          7.64               137.64            
210              7.64               147.64            
Basin#43         17.64              147.64            
Basin44          17.64              207.64            
FrMan2           27.64              207.64            
FrIn3            27.64              177.64            
FrMan1           17.64              157.64            
FrIn1            27.64              237.64            
FrIn2            27.64              217.64            
ShadMan2         37.64              147.64            
ShadMan1         37.64              157.64            
ShadInl1         37.64              187.64            
ShadInl2         37.64              177.64            
McBerInl1        57.64              147.64            
WilderInl1       67.64              147.64            
McBerInl2        57.64              177.64            
WilderInl2       67.64              177.64            
CaracMan1        87.64              147.64            
Basin45          97.64              137.64            
EllInl1          107.64             117.64            
EllInl2          107.64             137.64            
EllInl4          107.64             177.64            
EllInl3          107.64             157.64            
CaracInl1        87.64              137.64            
CarMan1          97.64              127.64            
CarInl1          87.64              127.64            
CarInl2          77.64              127.64            
CarMan2          77.64              107.64            
CarInl3          77.64              87.64             
CarInl4          77.64              67.64             
CarInl5          77.64              47.64             
EllMan1          107.64             47.64             
LouInl1          117.64             47.64             
LouInl2          137.64             47.64             
EllInl5          107.64             37.64             
OsbornInl1       157.64             47.64             
282              177.64             47.64             
PaliInl1         197.64             47.64             
Basin19          197.64             37.64             
PaliInl2         197.64             77.64             
PaliInl4         207.64             107.64            
PaliInl3         207.64             77.64             
CurtisMan1       177.64             77.64             
CurtisInl1       177.64             107.64            
CurtisInl2       177.64             137.64            
PaliInl11        197.64             197.64            
PaliInl10        197.64             187.64            
PaliInl9         197.64             177.64            
PaliInl8         197.64             167.64            
PaliInl7         197.64             157.64            
PaliInl6         197.64             147.64            
PaliInl5         197.64             137.64            
OsbornInl4       167.64             197.64            
OsbornInl3       167.64             187.64            
OsbornInl2       167.64             177.64            
OsbornInl        167.64             157.64            
OsbornInl0       167.64             137.64            
324              167.64             97.64             
325              167.64             117.64            
OsbornInl5       127.64             137.64            
OsbornInl6       147.64             137.64            
29thInl2         237.64             27.64             
29thInl3         227.64             27.64             
29thMan1         217.64             27.64             
29thInl4         207.64             27.64             
29thInl1         247.64             27.64             
30thMan1         207.64             57.64             
30thInl2         227.64             57.64             
30thInl3         247.64             57.64             
ChelsaMan1       247.64             97.64             
ChelsaMan2       267.64             97.64             
ChelsaMan3       267.64             127.64            
ChelsaMan4       267.64             157.64            
Basin1           277.64             127.64            
ChelsaInl1       247.64             117.64            
ChelsaInl3       277.64             87.64             
ChelsaInl4       247.64             177.64            
ChelsaMan5       247.64             157.64            

[MAP]
DIMENSIONS 7.64 27.64 277.64 237.64
Units      None

[REPORT]
INPUT            YES
SUBCATCHMENTS    ALL
NODES            ALL
LINKS            ALL



