;; SWMM5 .inp converted from XPSWMM .xp file
;; Generated by XPSWMM Card Reader
;; Source format: XP_CARD | Original title: Indian Mill Creek Test Run

[TITLE]
;;Project Title/Notes
Indian Mill Creek Test Run

[OPTIONS]
FLOW_UNITS           CFS
INFILTRATION         HORTON
FLOW_ROUTING         DYNWAVE
LINK_OFFSETS         DEPTH
MIN_SLOPE            0.0
ALLOW_PONDING        NO
SKIP_STEADY_STATE    NO
INERTIAL_DAMPING     PARTIAL
NORMAL_FLOW_LIMITED  BOTH

[JUNCTIONS]
;;Name           Elev       MaxDepth   InitDepth  SurDepth   Aponded
;;-------------- ---------- ---------- ---------- ---------- ----------
920370           0          0          0          0          0
920360           0          0          0          0          0
920350           0          0          0          0          0
920340           0          0          0          0          0
920330           0          0          0          0          0
920320           0          0          0          0          0
920310           0          0          0          0          0
920300           0          0          0          0          0
920290           0          0          0          0          0
920280           0          0          0          0          0
920270           0          0          0          0          0
920260           0          0          0          0          0
920250           0          0          0          0          0
920240           0          0          0          0          0
920230           0          0          0          0          0
920220           0          0          0          0          0
920210           0          0          0          0          0
920200           0          0          0          0          0
920190           0          0          0          0          0
920180           0          0          0          0          0
920170           0          0          0          0          0
920160           0          0          0          0          0
920150           0          0          0          0          0
920140           0          0          0          0          0
920130           0          0          0          0          0
920110           0          0          0          0          0
920090           0          0          0          0          0
920070           0          0          0          0          0
920060           0          0          0          0          0
920050           0          0          0          0          0
920030           0          0          0          0          0
920010           0          0          0          0          0
910740           0          0          0          0          0
910720           0          0          0          0          0
921040           0          0          0          0          0
921020           0          0          0          0          0
921010           0          0          0          0          0
921030           0          0          0          0          0
922060           0          0          0          0          0
922050           0          0          0          0          0
922040           0          0          0          0          0
922030           0          0          0          0          0
922020           0          0          0          0          0
922010           0          0          0          0          0
923200           0          0          0          0          0
923180           0          0          0          0          0
923160           0          0          0          0          0
923150           0          0          0          0          0
923140           0          0          0          0          0
923130           0          0          0          0          0
923120           0          0          0          0          0
923110           0          0          0          0          0
923100           0          0          0          0          0
923030           0          0          0          0          0
923020           0          0          0          0          0
923010           0          0          0          0          0
923060           0          0          0          0          0
923050           0          0          0          0          0
923040           0          0          0          0          0
923070           0          0          0          0          0
925040           0          0          0          0          0
925030           0          0          0          0          0
925020           0          0          0          0          0
925010           0          0          0          0          0
925050           0          0          0          0          0
924020           0          0          0          0          0
924010           0          0          0          0          0
923170           0          0          0          0          0
923190           0          0          0          0          0
910710           0          0          0          0          0
91700            0          0          0          0          0
910690           0          0          0          0          0
910680           0          0          0          0          0
910650           0          0          0          0          0
910630           0          0          0          0          0
910620           0          0          0          0          0
910610           0          0          0          0          0
910600           0          0          0          0          0
910580           0          0          0          0          0
910560           0          0          0          0          0
910540           0          0          0          0          0
910520           0          0          0          0          0
910510           0          0          0          0          0
910500           0          0          0          0          0
910490           0          0          0          0          0
910480           0          0          0          0          0
910470           0          0          0          0          0
910460           0          0          0          0          0
910440           0          0          0          0          0
910420           0          0          0          0          0
910410           0          0          0          0          0
910390           0          0          0          0          0
910380           0          0          0          0          0
910370           0          0          0          0          0
910350           0          0          0          0          0
910330           0          0          0          0          0
910320           0          0          0          0          0
910300           0          0          0          0          0
910280           0          0          0          0          0
910260           0          0          0          0          0
910250           0          0          0          0          0
910240           0          0          0          0          0
910230           0          0          0          0          0
910220           0          0          0          0          0
910200           0          0          0          0          0
910190           0          0          0          0          0
910180           0          0          0          0          0
910170           0          0          0          0          0
910160           0          0          0          0          0
910140           0          0          0          0          0
910130           0          0          0          0          0
910110           0          0          0          0          0
910070           0          0          0          0          0
910050           0          0          0          0          0
910030           0          0          0          0          0
910010           0          0          0          0          0
910000           0          0          0          0          0
910080           0          0          0          0          0
910090           0          0          0          0          0
910670           0          0          0          0          0
941070           0          0          0          0          0
941060           0          0          0          0          0
941050           0          0          0          0          0
941040           0          0          0          0          0
941030           0          0          0          0          0
941020           0          0          0          0          0
941010           0          0          0          0          0
941045           0          0          0          0          0
942040           0          0          0          0          0
942030           0          0          0          0          0
942020           0          0          0          0          0
942010           0          0          0          0          0
945140           0          0          0          0          0
945130           0          0          0          0          0
945120           0          0          0          0          0
945110           0          0          0          0          0
945100           0          0          0          0          0
945090           0          0          0          0          0
945080           0          0          0          0          0
945070           0          0          0          0          0
945060           0          0          0          0          0
945050           0          0          0          0          0
945040           0          0          0          0          0
945030           0          0          0          0          0
945020           0          0          0          0          0
945010           0          0          0          0          0
949040           0          0          0          0          0
949030           0          0          0          0          0
949020           0          0          0          0          0
949010           0          0          0          0          0
948010           0          0          0          0          0
947040           0          0          0          0          0
947030           0          0          0          0          0
947020           0          0          0          0          0
947010           0          0          0          0          0
946020           0          0          0          0          0
946010           0          0          0          0          0
931020           0          0          0          0          0
931010           0          0          0          0          0
932090           0          0          0          0          0
932080           0          0          0          0          0
932070           0          0          0          0          0
932060           0          0          0          0          0
932050           0          0          0          0          0
932040           0          0          0          0          0
932020           0          0          0          0          0
932010           0          0          0          0          0
932030           0          0          0          0          0
953300           0          0          0          0          0
953290           0          0          0          0          0
953280           0          0          0          0          0
953270           0          0          0          0          0
953260           0          0          0          0          0
953240           0          0          0          0          0
953230           0          0          0          0          0
953220           0          0          0          0          0
953380           0          0          0          0          0
953370           0          0          0          0          0
953360           0          0          0          0          0
953350           0          0          0          0          0
953330           0          0          0          0          0
953320           0          0          0          0          0
953310           0          0          0          0          0
953340           0          0          0          0          0
953210           0          0          0          0          0
953200           0          0          0          0          0
953190           0          0          0          0          0
953180           0          0          0          0          0
953170           0          0          0          0          0
953160           0          0          0          0          0
953150           0          0          0          0          0
953140           0          0          0          0          0
953130           0          0          0          0          0
953110           0          0          0          0          0
953100           0          0          0          0          0
950220           0          0          0          0          0
950210           0          0          0          0          0
950200           0          0          0          0          0
950190           0          0          0          0          0
950180           0          0          0          0          0
950170           0          0          0          0          0
950130           0          0          0          0          0
950120           0          0          0          0          0
950110           0          0          0          0          0
950100           0          0          0          0          0
952030           0          0          0          0          0
952020           0          0          0          0          0
952010           0          0          0          0          0
954030           0          0          0          0          0
954020           0          0          0          0          0
954010           0          0          0          0          0
953120           0          0          0          0          0
951140           0          0          0          0          0
951130           0          0          0          0          0
951120           0          0          0          0          0
951110           0          0          0          0          0
951100           0          0          0          0          0
951090           0          0          0          0          0
951080           0          0          0          0          0
951020           0          0          0          0          0
951040           0          0          0          0          0
951010           0          0          0          0          0
951030           0          0          0          0          0

[CONDUITS]
;;Name           From             To               Length     Roughness  InOffset   OutOffset  InitFlow   MaxFlow
;;-------------- ---------------- ---------------- ---------- ---------- ---------- ---------- ---------- ----------
20370            920370           920360           50.00      0.0140     790.10     790.00     0          0
20360            920360           920350           0          0          790.00     786.90     0          0
20350            920350           920340           0          0          786.90     781.70     0          0
20340            920340           920330           0          0          781.70     781.30     0          0
20330            920330           920320           0          0          781.30     780.10     0          0
20320            920320           920310           50.00      0.0140     780.10     780.00     0          0
20310            920310           920300           0          0          780.00     772.70     0          0
20300            920300           920290           50.00      0.0300     772.70     772.20     0          0
20290            920290           920280           1360.00    0          772.20     770.80     0          0
20280            920280           920270           640.00     0          770.80     770.20     0          0
20270            920270           920260           1240.00    0          770.20     767.70     0          0
20260            920260           920250           1760.00    0          767.70     763.20     0          0
20250            920250           920240           2230.00    0          763.20     757.00     0          0
20240            920240           920230           170.00     0.0140     757.00     756.80     0          0
20230            920230           920220           1120.00    0          756.80     755.20     0          0
20220            920220           920210           960.00     0          755.20     753.90     0          0
20210            920210           920200           1400.00    0          753.90     751.90     0          0
20200            920200           920190           50.00      0.0140     751.90     751.80     0          0
20190            920190           920180           1800.00    0          751.80     748.80     0          0
20180            920180           920170           1000.00    0          748.80     747.10     0          0
20170            920170           920160           1880.00    0          747.10     744.00     0          0
20150            920150           920140           1627.00    0          743.70     740.00     0          0
20140            920140           920130           867.00     0          740.00     738.00     0          0
20130            920130           920110           26.00      0.0140     738.00     737.90     0          0
20110            920110           920090           3054.00    0          737.90     733.40     0          0
20090            920090           920070           26.00      0.0140     733.40     733.30     0          0
20070            920070           920060           1987.00    0          733.30     730.80     0          0
20060            920060           920050           1087.00    0          730.80     729.50     0          0
20050            920050           920030           400.00     0          729.50     729.00     0          0
20030            920030           920010           26.00      0.0140     729.00     728.80     0          0
20010            920010           910740           1127.00    0          728.80     728.00     0          0
10740            910740           910720           56.00      0.0140     728.00     727.50     0          0
21040            921040           921020           500.00     0          753.00     748.30     0          0
21020            921020           921010           1600.00    0          748.30     733.00     0          0
21010            921010           920010           500.00     0          733.00     728.80     0          0
21030            921030           921020           500.00     0          753.00     748.30     0          0
22060            922060           922050           1000.00    0          773.49     764.78     0          0
22050            922050           922040           1000.00    0          764.78     756.09     0          0
22040            922040           922030           500.00     0          756.09     751.74     0          0
22030            922030           922020           50.00      0.0140     751.74     751.30     0          0
22020            922020           922010           1400.00    0          751.25     739.07     0          0
22010            922010           920050           1100.00    0          739.07     729.50     0          0
23160            923160           923150           700.00     0          808.00     805.15     0          0
23150            923150           923140           50.00      0.0250     805.15     805.00     0          0
23140            923140           923130           1100.00    0          805.00     798.50     0          0
23130            923130           923120           800.00     0          798.50     793.80     0          0
23120            923120           923110           2100.00    0          793.80     781.30     0          0
23110            923110           923100           800.00     0          781.30     776.60     0          0
23100            923100           923030           1500.00    0          776.60     768.50     0          0
23030            923030           923020           2080.00    0          768.50     760.70     0          0
23020            923020           923010           50.00      0.0140     760.70     760.50     0          0
23010            923010           920180           1640.00    0          760.50     748.80     0          0
23060            923060           923050           800.00     0          779.20     778.50     0          0
23050            923050           923040           900.00     0          778.50     773.00     0          0
23040            923040           923030           1700.00    0          773.00     768.50     0          0
23070            923070           923050           1500.00    0          786.00     778.50     0          0
25040            925040           925030           1000.00    0.0350     794.40     783.70     0          0
25030            925030           925020           700.00     0.0350     783.70     772.00     0          0
25020            925020           925010           50.00      0.0140     772.00     770.80     0          0
25010            925010           920280           700.00     0.0350     770.80     770.80     0          0
25050            925050           925030           1000.00    0.0350     794.40     783.70     0          0
24020            924020           924010           1920.00    0          779.70     772.30     0          0
24010            924010           920260           1200.00    0          772.30     767.70     0          0
20160            920160           920150           26.00      0.0140     744.00     743.70     0          0
23180            923180           923170           500.00     0          810.10     808.90     0          0
23170            923170           923160           400.00     0          808.90     808.00     0          0
23200            923200           923190           1000.00    0          814.00     811.70     0          0
23190            923190           923180           700.00     0          811.70     810.10     0          0
10720            910720           910710           2192.00    0          727.50     722.40     0          0
10710            910710           91700            720.00     0          722.40     720.70     0          0
10700            91700            910690           1840.00    0          720.70     716.40     0          0
10690            910690           910680           840.00     0          716.40     714.50     0          0
10670            910670           910650           70.00      0          713.70     713.50     0          0
10650            910650           910630           200.00     0.0140     713.50     712.90     0          0
10630            910630           910620           760.00     0          712.90     711.10     0          0
10620            910620           910610           360.00     0          711.10     710.30     0          0
10610            910610           910600           420.00     0          710.30     706.00     0          0
10600            910600           910580           382.00     0          706.00     702.20     0          0
10580            910580           910560           26.00      0.0140     702.20     701.90     0          0
10560            910560           910540           372.00     0          701.90     698.10     0          0
10540            910540           910520           40.00      0.0140     698.10     697.87     0          0
10520            910520           910510           1200.00    0          697.87     688.90     0          0
10510            910510           910500           980.00     0          688.90     681.50     0          0
10500            910500           910490           380.00     0          681.50     679.20     0          0
10490            910490           910480           1000.00    0          679.20     674.50     0          0
10480            910480           910470           1280.00    0          674.50     668.50     0          0
10470            910470           910460           1480.00    0          668.50     661.50     0          0
10460            910460           910440           1630.00    0          661.50     651.20     0          0
10440            910440           910420           20.00      0.0140     651.20     651.10     0          0
10420            910420           910410           1435.00    0          651.10     646.30     0          0
10410            910410           910390           108.00     0          646.30     646.00     0          0
10390            910390           910380           14.00      0.0140     646.00     645.95     0          0
10380            910380           910370           17.00      0          645.95     645.90     0          0
10370            910370           910350           647.00     0          645.90     644.10     0          0
10350            910350           910330           26.00      0.0140     644.10     644.00     0          0
10330            910330           910320           1391.00    0          644.00     640.00     0          0
10320            910320           910300           500.00     0          640.00     638.00     0          0
10300            910300           910280           999.00     0          638.00     634.00     0          0
10280            910280           910260           26.00      0.0140     634.00     633.90     0          0
10260            910260           910250           1350.00    0          633.90     628.50     0          0
10250            910250           910240           320.00     0          628.50     627.50     0          0
10240            910240           910230           1240.00    0          627.50     623.70     0          0
10230            910230           910220           1490.00    0          623.70     619.00     0          0
10220            910220           910200           907.00     0          619.00     616.20     0          0
10200            910200           910190           460.00     0          616.20     614.80     0          0
10190            910190           910180           66.00      0.0140     614.80     614.60     0          0
10180            910180           910170           460.00     0          614.60     613.20     0          0
10170            910170           910160           410.00     0          613.20     611.90     0          0
10160            910160           910140           327.00     0          611.90     610.90     0          0
10140            910140           910130           100.00     0          610.90     610.60     0          0
10130            910130           910110           130.00     0          610.60     610.20     0          0
10110            910110           910090           189.00     0          610.20     609.60     0          0
10070            910070           910050           100.00     0          609.00     608.70     0          0
10030            910030           910010           182.00     0.0140     605.50     605.00     0          0
10010            910010           910000           909.00     0          605.00     597.00     0          0
10050            910050           910030           1015.00    0          608.70     605.50     0          0
10080            910080           910070           126.00     0.0140     609.40     609.00     0          0
10090            910090           910080           69.00      0          609.60     609.40     0          0
10680            910680           910670           340.00     0          714.50     713.70     0          0
41070            941070           941060           800.00     0          750.00     733.00     0          0
41060            941060           941050           762.00     0.0140     733.00     710.15     0          0
41050            941050           941045           1001.00    0.0140     710.15     688.05     0          0
41040            941040           941030           2000.00    0          685.10     659.90     0          0
41030            941030           941020           680.00     0          659.90     651.30     0          0
41020            941020           941010           100.00     0.0140     651.30     649.00     0          0
41010            941010           910230           1120.00    0          649.00     623.70     0          0
41045            941045           941040           133.00     0.0140     688.05     685.10     0          0
42040            942040           942030           600.00     0.0350     638.00     634.00     0          0
42030            942030           942020           225.00     0.0140     634.00     633.00     0          0
42020            942020           942010           650.00     0.0350     633.00     631.00     0          0
42010            942010           910250           200.00     0.0140     631.00     628.50     0          0
45140            945140           945130           250.00     0.0250     752.00     750.00     0          0
45130            945130           945120           1020.00    0          750.00     741.20     0          0
45120            945120           945110           860.00     0          741.20     733.70     0          0
45110            945110           945100           840.00     0          733.70     726.40     0          0
45100            945100           945090           50.00      0.0140     726.40     726.00     0          0
45090            945090           945080           1600.00    0          726.00     712.10     0          0
45080            945080           945070           1400.00    0          712.10     700.00     0          0
45070            945070           945060           50.00      0.0140     700.00     699.10     0          0