;; SWMM5 .inp converted from XPSWMM .xp file
;; Generated by XPSWMM Card Reader
;; Source format: XP_CARD | Original title: (none)

[TITLE]
;;Project Title/Notes
Converted from XPSWMM .xp file

[OPTIONS]
FLOW_UNITS           CMS
INFILTRATION         HORTON
FLOW_ROUTING         DYNWAVE
LINK_OFFSETS         DEPTH
MIN_SLOPE            0.0
ALLOW_PONDING        NO
SKIP_STEADY_STATE    NO
ROUTING_STEP         00:00:15
VARIABLE_STEP        0.75
INERTIAL_DAMPING     FULL
NORMAL_FLOW_LIMITED  BOTH
MAX_TRIALS           50

[JUNCTIONS]
;;Name           Elev       MaxDepth   InitDepth  SurDepth   Aponded
;;-------------- ---------- ---------- ---------- ---------- ----------
HA/1             108.25     0          0          0          0
HA/2             108.34     0          0          0          0
HA/2A            107.71     0          0          0          0
HA/3             108.46     0          0          0          0
HA/3A            108.34     0          0          0          0
HA/4             113.75     0          0          0          0
HA/4A            114.87     0          0          0          0
HA/5             115.96     0          0          0          0
HA/6             118.35     0          0          0          0
HA/7             118.61     0          0          0          0
MB/1             109.56     0          0          0          0
MB/2             109.99     0          0          0          0
MB/3             108.71     0          0          0          0
MB/4             108.99     0          0          0          0
MB/5             109.36     0          0          0          0
NG/25            109.53     0          0          0          0
NG/26            109.28     0          0          0          0
NG/27            109.88     0          0          0          0
NG/28            109.99     0          0          0          0
NG/29            110.08     0          0          0          0
NG/30            109.93     0          0          0          0
BA/1             101.28     0          0          0          0
BA/2             101.17     0          0          0          0
BA/3             102.75     0          0          0          0
BA/4             106.43     0          0          0          0
BD/1             114.43     0          0          0          0
EA/1             105.05     0          0          0          0
EA/2             106.23     0          0          0          0
EA/3             108.22     0          0          0          0
EA/4             105.84     0          0          0          0
EA/5             106.17     0          0          0          0
EA/6             107.53     0          0          0          0
EA/7             107.15     0          0          0          0
EA/8             107.49     0          0          0          0
EA/9             108.29     0          0          0          0
FU/1             104.93     0          0          0          0
FU/2             104.94     0          0          0          0
FU/3             105.32     0          0          0          0
FU/4             106.34     0          0          0          0
FU/5             106.30     0          0          0          0
FU/6             106.75     0          0          0          0
FU/7             106.25     0          0          0          0
FU/8             106.43     0          0          0          0
CA/1A            103.01     0          0          0          0
CA/1             104.01     0          0          0          0
CA/2             106.45     0          0          0          0
CA/2A            106.46     0          0          0          0
CA/3A            106.46     0          0          0          0
CA/3B            106.46     0          0          0          0
CA/3             105.27     0          0          0          0
WA/1             110.72     0          0          0          0
WA/2             110.37     0          0          0          0
WA/3             110.55     0          0          0          0
WA/4             109.76     0          0          0          0
WA/5             109.72     0          0          0          0
WA/6             111.14     0          0          0          0
WA/7             114.98     0          0          0          0
WA/8             120.25     0          0          0          0
WA/9             126.76     0          0          0          0
WA/10            127.26     0          0          0          0
WA/11            126.58     0          0          0          0
XA/1             103.27     0          0          0          0
XA/2             103.66     0          0          0          0
XA/3             105.88     0          0          0          0
XA/4             112.07     0          0          0          0
XA/5             113.61     0          0          0          0
XA/6             117.15     0          0          0          0
XA/7             117.45     0          0          0          0
XA/8             118.89     0          0          0          0
XA/9             122.95     0          0          0          0
XA/10            125.40     0          0          0          0
XB/1             106.46     0          0          0          0
XB/2             105.96     0          0          0          0
XB/3             109.16     0          0          0          0
XB/4             112.21     0          0          0          0
XB/5             111.41     0          0          0          0
XB/6             112.18     0          0          0          0
HG/3             102.71     0          0          0          0
HB/1             103.44     0          0          0          0
HB/2             102.57     0          0          0          0
HG1              103.29     0          0          0          0
HG/2             103.07     0          0          0          0
HG/4             102.71     0          0          0          0
HG/5             102.33     0          0          0          0
HG/6             102.56     0          0          0          0
HG/7             102.33     0          0          0          0
HG/8             102.43     0          0          0          0
GC/1             103.36     0          0          0          0
GC/2             103.31     0          0          0          0
GC/3             103.17     0          0          0          0
GC/4             103.56     0          0          0          0
GC/5             103.73     0          0          0          0
JA/2             103.63     0          0          0          0
WG/1             103.36     0          0          0          0
JA/2A            102.91     0          0          0          0
JA/3             103.69     0          0          0          0
JA/4             104.84     0          0          0          0
JA/5             105.51     0          0          0          0
JA/6             106.17     0          0          0          0
JA/7             105.96     0          0          0          0
JA/8             106.41     0          0          0          0
JA/9             106.41     0          0          0          0
JA/10            106.52     0          0          0          0
JA/11            107.39     0          0          0          0
JA/12            107.04     0          0          0          0
JA/13            107.50     0          0          0          0
JA/14            107.86     0          0          0          0
JA/15            108.62     0          0          0          0
JA/16            109.28     0          0          0          0
JA/17            110.93     0          0          0          0
JA/18            110.77     0          0          0          0
JA/19            110.77     0          0          0          0
MS/2A            111.50     0          0          0          0
ME/1             111.64     0          0          0          0
ME/1A            112.03     0          0          0          0
ME/2             113.75     0          0          0          0
ME/2A            113.76     0          0          0          0
ME/3             112.89     0          0          0          0
ME/4             114.90     0          0          0          0
ME/5             117.69     0          0          0          0
ME/6             118.90     0          0          0          0
ME/7             117.74     0          0          0          0
ME/8             116.20     0          0          0          0
MS/1             110.74     0          0          0          0
MS/1A            111.14     0          0          0          0
MS/2             111.61     0          0          0          0
MS/3             111.17     0          0          0          0
MT/1             112.81     0          0          0          0
MT/1A            113.89     0          0          0          0
MT/2             115.82     0          0          0          0
NB/1             102.94     0          0          0          0
NB/1A            103.29     0          0          0          0
NB/1B            103.70     0          0          0          0
NB/2             103.88     0          0          0          0
NC/1             104.55     0          0          0          0
NC/2             104.53     0          0          0          0
NC/3             105.82     0          0          0          0
NC/4             105.81     0          0          0          0
WG/2             103.52     0          0          0          0
NG/1             102.91     0          0          0          0
NG/2             103.09     0          0          0          0
NG/3             103.07     0          0          0          0
NG/4             102.59     0          0          0          0
NG/5             100.81     0          0          0          0
NG/6             102.19     0          0          0          0
NG/7             102.01     0          0          0          0
NG/8             101.71     0          0          0          0
NG/9             102.81     0          0          0          0
NG/10            102.58     0          0          0          0
NG/11            103.95     0          0          0          0
NG/12            103.90     0          0          0          0
NG/12A           104.15     0          0          0          0
NG/13            104.31     0          0          0          0
NG/14            105.33     0          0          0          0
NG/15            105.31     0          0          0          0
NG/16            106.02     0          0          0          0
NG/17            106.13     0          0          0          0
NG/18            107.07     0          0          0          0
NG/19            106.77     0          0          0          0
NG/20            107.88     0          0          0          0
NG/21            107.18     0          0          0          0
NG/22            109.33     0          0          0          0
NG/23            110.08     0          0          0          0
NG/24            109.96     0          0          0          0
LAA/1            104.94     0          0          0          0
LAA/2            104.85     0          0          0          0
LAA/3            106.27     0          0          0          0
LAA/4            106.68     0          0          0          0
DNN2             155.00     0          0          0          0
DNN3             164.00     0          0          0          0
DNWG15           151.00     0          0          0          0
DNG9             153.00     0          0          0          0
DNG7             175.00     0          0          0          0
DNG8             151.00     0          0          0          0
DNWYOMAJ         160.00     0          0          0          0
DNN7             155.00     0          0          0          0
CB/1             105.96     0          0          0          0
CB/2             106.35     0          0          0          0
CB/3             106.17     0          0          0          0
CB/4             105.50     0          0          0          0
1220             117.08     0          0          0          0

[STORAGE]
;;Name           Elev       MaxDepth   InitDepth  Shape      Curve/Params
;;-------------- ---------- ---------- ---------- ---------- ----------
N2               101.30     0          0          FUNCTIONAL 2.54 0          0
N7               105.25     0          0          FUNCTIONAL 2.54 0          0
G7               110.53     0          0          FUNCTIONAL 2.54 0          0
G9               103.33     0          0          FUNCTIONAL 2.54 0          0
WYOMING          104.90     0          0          FUNCTIONAL 67.90 0          0
G8               103.00     0          0          FUNCTIONAL 2.54 0          0
N3               101.61     0          0          FUNCTIONAL 2.54 0          0
WG15             102.44     0          0          FUNCTIONAL 1.13 0          0

[CONDUITS]
;;Name           From             To               Length     Roughness  InOffset   OutOffset  InitFlow   MaxFlow
;;-------------- ---------------- ---------------- ---------- ---------- ---------- ---------- ---------- ----------
ha.1             HA/1             NG/24            72.70      0.0140     104.38     104.31     0          0
ha.2             HA/2             HA/1             70.50      0.0140     104.73     104.60     0          0
ha.2a            HA/2A            HA/2             33.00      0.0140     105.00     104.79     0          0
ha.3             HA/3             HA/2A            47.60      0.0140     105.51     105.02     0          0
ha.3a            HA/3A            HA/3             7.30       0.0140     107.32     106.94     0          0
ha.4             HA/4             HA/3A            112.70     0.0140     112.24     107.32     0          0
ha.4a            HA/4A            HA/4             10.70      0.0140     112.37     112.27     0          0
ha.5             HA/5             HA/4A            15.00      0.0140     112.51     112.40     0          0
ha.6             HA/6             HA/5             83.30      0.0140     116.87     114.61     0          0
ha.7             HA/7             HA/6             48.20      0.0140     117.28     116.89     0          0
mb.1             MB/1             NG/25            12.30      0.0140     106.08     104.58     0          0
mb.2             MB/2             MB/1             97.70      0.0140     106.55     106.13     0          0
mb.3             MB/3             MB/2             30.80      0.0140     106.78     106.59     0          0
mb.4             MB/4             MB/3             29.50      0.0140     106.86     106.82     0          0
mb.5             MB/5             MB/4             47.10      0.0140     107.26     106.91     0          0
ng.26            NG/26            NG/25            76.30      0.0140     104.78     104.61     0          0
ng.27            NG/27            NG/26            68.20      0.0140     104.94     104.79     0          0
ng.28            NG/28            NG/27            83.50      0.0140     105.04     104.98     0          0
ng.29            NG/29            NG/28            66.10      0.0140     105.27     105.08     0          0
ng.30            NG/30            NG/29            71.00      0.0140     105.45     105.29     0          0
ba.1             BA/1             N2               11.00      0.0140     97.95      97.92      0          0
ba.2             BA/2             BA/1             40.10      0.0140     98.70      98.00      0          0
ba.3             BA/3             BA/2             101.30     0.0140     100.98     99.61      0          0
ba.4             BA/4             BA/3             34.40      0.0140     104.97     101.04     0          0
bd.1             BD/1             BA/4             77.70      0.0140     113.28     104.97     0          0
ea.1             EA/1             CA/3             98.78      0.0140     104.25     103.91     0          0
ea.2             EA/2             EA/1             70.04      0.0140     104.52     104.25     0          0
ea.3             EA/3             EA/2             28.85      0.0140     104.70     104.59     0          0
ea.4             EA/4             EA/3             89.14      0.0140     105.03     104.70     0          0
ea.5             EA/5             EA/4             26.12      0.0140     105.16     105.05     0          0
ea.6             EA/6             EA/5             60.38      0.0140     105.62     105.23     0          0
ea.7             EA/7             EA/6             61.46      0.0140     105.96     105.65     0          0
ea.8             EA/8             EA/7             30.54      0.0140     106.12     105.97     0          0
ea.9             EA/9             EA/8             51.56      0.0140     106.45     106.17     0          0
fu.1             FU/1             N7               4.30       0.0140     101.74     101.72     0          0
fu.2             FU/2             FU/1             14.20      0.0140     102.19     101.77     0          0
fu.3             FU/3             FU/2             74.10      0.0140     102.72     102.19     0          0
fu.4             FU/4             FU/3             72.60      0.0140     103.16     102.74     0          0
fu.5             FU/5             FU/4             40.00      0.0140     103.42     103.18     0          0
fu.6             FU/6             FU/5             37.80      0.0140     103.59     103.45     0          0
fu.7             FU/7             FU/6             19.50      0.0140     103.77     103.62     0          0
fu.8             FU/8             FU/7             17.10      0.0140     105.02     104.83     0          0
ca.1a            CA/1A            NG/11            16.90      0.0140     100.57     100.51     0          0
ca.1             CA/1             CA/1A            12.20      0.0140     101.71     101.65     0          0
ca.2             CA/2             CA/1             101.00     0.0140     101.94     101.71     0          0
ca.2a            CA/2A            CA/2             32.60      0.0140     102.58     101.96     0          0
ca.3a            CA/3A            CA/2A            24.80      0.0140     103.03     102.90     0          0
ca.3b            CA/3B            CA/3A            19.80      0.0140     103.09     103.03     0          0
ca.3             CA/3             CA/3B            56.30      0.0140     103.24     103.09     0          0
wa.1             WA/1             G7               18.55      0.0140     107.61     107.52     0          0
wa.2             WA/2             WA/1             49.42      0.0140     107.87     107.61     0          0
wa.3             WA/3             WA/2             66.14      0.0140     108.20     107.87     0          0
wa.4             WA/4             WA/3             30.54      0.0140     108.59     108.23     0          0
wa.5             WA/5             WA/4             50.33      0.0140     108.72     108.59     0          0
wa.6             WA/6             WA/5             50.29      0.0140     109.06     108.72     0          0
wa.7             WA/7             WA/6             74.64      0.0140     113.21     109.06     0          0
wa.8             WA/8             WA/7             60.96      0.0140     118.94     113.40     0          0
wa.9             WA/9             WA/8             75.59      0.0140     123.98     118.94     0          0
wa.10            WA/10            WA/9             61.57      0.0140     124.63     124.02     0          0
wa.11            WA/11            WA/10            44.81      0.0140     125.19     124.63     0          0
xa.2             XA/2             XA/1             70.66      0.0140     102.47     100.87     0          0
xa.3             XA/3             XA/2             75.08      0.0140     103.55     102.49     0          0
xa.4             XA/4             XA/3             98.70      0.0140     110.98     104.35     0          0
xa.5             XA/5             XA/4             23.91      0.0140     112.53     111.20     0          0
xa.6             XA/6             XA/5             58.86      0.0140     115.49     112.63     0          0
xa.7             XA/7             XA/6             2.90       0.0140     115.59     115.54     0          0
xa.8             XA/8             XA/7             19.40      0.0140     116.70     115.65     0          0
xa.9             XA/9             XA/8             63.90      0.0140     121.68     116.89     0          0
xa.10            XA/10            XA/9             71.82      0.0140     124.43     121.82     0          0
xb.1             XB/1             XA/3             97.78      0.0140     104.33     103.55     0          0
xb.2             XB/2             XB/1             71.46      0.0140     104.90     104.33     0          0
xb.3             XB/3             XB/2             58.00      0.0140     108.16     104.96     0          0
xb.4             XB/4             XB/3             57.13      0.0140     109.35     108.16     0          0
xb.5             XB/5             XB/4             87.21      0.0140     110.10     109.40     0          0
xb.6             XB/6             XB/5             42.50      0.0140     111.24     110.10     0          0
hb.1             HB/1             HG/3             39.10      0.0140     99.07      98.53      0          0
hb.2             HB/2             HB/1             54.35      0.0140     99.40      99.09      0          0
hg.1             HG1              G9               5.20       0.0140     98.03      97.99      0          0
hg.2             HG/2             HG1              30.40      0.0140     98.28      98.03      0          0
hg.3             HG/3             HG/2             43.10      0.0140     98.53      98.28      0          0
hg.4             HG/4             HG/3             17.90      0.0140     98.69      98.53      0          0
hg.5             HG/5             HG/4             48.50      0.0140     98.93      98.69      0          0
hg.6             HG/6             HG/5             38.30      0.0140     99.43      98.93      0          0
hg.7             HG/7             HG/6             37.00      0.0140     99.77      99.43      0          0
hg.8             HG/8             HG/7             21.40      0.0140     100.02     99.77      0          0
gc.2             GC/2             GC/1             81.40      0.0140     100.10     99.94      0          0
gc.3             GC/3             GC/2             22.80      0.0140     100.23     100.10     0          0
gc.4             GC/4             GC/3             68.60      0.0140     100.53     100.53     0          0
gc.5             GC/5             GC/4             55.80      0.0140     100.84     100.53     0          0
Link_702         ?                ?                24.60      0.0140     99.10      99.01      0          0
Link_710         ?                ?                7.20       0.0140     98.71      98.12      0          0
Link_711         ?                ?                58.80      0.0140     99.80      99.19      0          0
Link_712         ?                ?                55.50      0.0140     102.41     101.71     0          0
Link_713         ?                ?                85.50      0.0140     102.77     102.54     0          0
Link_714         ?                ?                60.50      0.0140     102.92     102.80     0          0
Link_715         ?                ?                65.00      0.0140     103.11     102.93     0          0
Link_716         ?                ?                59.50      0.0140     103.84     103.49     0          0
Link_717         ?                ?                24.20      0.0140     103.97     103.88     0          0
Link_718         ?                ?                33.50      0.0140     104.17     104.00     0          0
Link_719         ?                ?                57.00      0.0140     104.59     104.20     0          0
Link_720         ?                ?                54.00      0.0140     104.89     104.71     0          0
Link_721         ?                ?                63.00      0.0140     105.13     104.89     0          0
Link_722         ?                ?                35.50      0.0140     105.30     105.15     0          0
Link_723         ?                ?                71.20      0.0140     105.67     105.41     0          0
Link_724         ?                ?                80.00      0.0140     107.65     106.92     0          0
Link_725         ?                ?                53.50      0.0140     107.86     107.66     0          0
Link_726         ?                ?                9.10       0.0140     107.98     107.93     0          0
Link_727         ?                ?                32.30      0.0140     108.11     108.00     0          0
ja.2a            JA/2A            WG/1             7.20       0.0140     98.46      98.12      0          0
ja.2             JA/2             JA/2A            24.60      0.0140     98.55      98.46      0          0
ja.3             JA/3             JA/2             58.80      0.0140     99.80      99.19      0          0
ja.4             JA/4             JA/3             55.50      0.0140     102.41     101.71     0          0
ja.5             JA/5             JA/4             85.50      0.0140     102.77     102.54     0          0
ja.6             JA/6             JA/5             60.50      0.0140     102.92     102.80     0          0
ja.7             JA/7             JA/6             65.00      0.0140     103.11     102.93     0          0
ja.8             JA/8             JA/7             59.50      0.0140     103.84     103.49     0          0
ja.9             JA/9             JA/8             24.20      0          103.97     103.88     0          0
ja.10            JA/10            JA/9             33.50      0.0140     104.16     104.00     0          0
ja.11            JA/11            JA/10            57.00      0          104.59     104.20     0          0
ja.12            JA/12            JA/11            54.00      0          104.89     104.71     0          0
ja.13            JA/13            JA/12            63.00      0          105.13     104.89     0          0
ja.14            JA/14            JA/13            35.50      0          105.30     105.15     0          0
ja.15            JA/15            JA/14            71.20      0          105.67     105.41     0          0
ja.16            JA/16            JA/15            80.00      0          107.65     106.92     0          0
ja.17            JA/17            JA/16            53.50      0          107.86     107.65     0          0
ja.18            JA/18            JA/17            9.10       0          107.93     107.86     0          0
ja.19            JA/19            JA/18            32.30      0.0140     108.11     108.00     0          0
me.1             ME/1             MS/2A            30.70      0.0140     109.15     108.96     0          0
me.1a            ME/1A            ME/1             50.10      0.0140     109.56     109.19     0          0
me.2             ME/2             ME/1A            51.80      0.0140     109.98     109.59     0          0
me.2a            ME/2A            ME/2             28.30      0.0140     110.16     110.01     0          0
me.3             ME/3             ME/2A            34.80      0.0140     110.45     110.23     0          0
me.4             ME/4             ME/3             66.60      0.0140     110.95     110.45     0          0
me.5             ME/5             ME/4             38.80      0.0140     111.26     110.97     0          0
me.6             ME/6             ME/5             40.50      0.0140     111.62     111.30     0          0
me.7             ME/7             ME/6             51.50      0.0140     112.03     111.63     0          0
me.8             ME/8             ME/7             64.00      0.0140     112.56     112.04     0          0
ms.1             MS/1             JA/18            56.60      0.0140     108.36     108.11     0          0
ms.1a            MS/1A            MS/1             23.60      0.0140     108.47     108.36     0          0
ms.2             MS/2             MS/1A            39.00      0.0140     108.71     108.48     0          0
ms.2a            MS/2A            MS/2             46.80      0.0140     108.93     108.72     0          0
ms.3             MS/3             MS/2A            37.00      0.0140     109.51     108.94     0          0
mt.1             MT/1             MS/3             21.50      0.0140     111.28     109.62     0          0
mt.1a            MT/1A            MT/1             63.40      0.0140     112.40     111.87     0          0
mt.2             MT/2             MT/1A            92.20      0.0140     114.65     112.78     0          0
nb.1             NB/1             JA/2             18.00      0.0140     99.54      99.19      0          0
nb.1a            NB/1A            NB/1             19.20      0.0140     100.82     100.46     0          0
nb.1b            NB/1B            NB/1A            36.70      0.0140     101.09     100.82     0          0
nb.2             NB/2             NB/1B            36.30      0.0140     101.31     101.11     0          0
nc.1             NC/1             NB/2             45.80      0.0140     101.97     101.36     0          0
nc.2             NC/2             NC/1             35.00      0.0140     103.14     103.03     0          0
nc.3             NC/3             NC/2             88.60      0.0140     103.49     103.16     0          0
nc.4             NC/4             NC/3             34.40      0.0140     103.63     103.51     0          0
ng.1             NG/1             WG/2             49.90      0.0140     98.38      98.36      0          0
ng.2             NG/2             NG/1             122.40     0.0140     98.50      98.38      0          0
ng.3             NG/3             NG/2             153.30     0.0140     98.65      98.50      0          0