;; SWMM5 .inp converted from XPSWMM .xp file
;; Generated by XPSWMM Card Reader
;; Source format: XP_CARD | Original title: dry weather-first trial

[TITLE]
;;Project Title/Notes
dry weather-first trial

[OPTIONS]
FLOW_UNITS           CFS
INFILTRATION         HORTON
FLOW_ROUTING         DYNWAVE
LINK_OFFSETS         DEPTH
MIN_SLOPE            0.0
ALLOW_PONDING        NO
SKIP_STEADY_STATE    NO
ROUTING_STEP         00:00:60
VARIABLE_STEP        0.75
INERTIAL_DAMPING     PARTIAL
NORMAL_FLOW_LIMITED  BOTH
MAX_TRIALS           50
HEAD_TOLERANCE       0.0033

[JUNCTIONS]
;;Name           Elev       MaxDepth   InitDepth  SurDepth   Aponded
;;-------------- ---------- ---------- ---------- ---------- ----------
228031           721.40     0          0          0          0
22585.1          722.71     0          0          0          0
22585            721.83     0          0          0          0
22584            720.83     0          0          0          0
22583            721.71     0          0          0          0
22582            721.48     0          0          0          0
22581            722.19     0          0          0          0
22580            721.90     0          0          0          0
22580.2          721.50     0          0          0          0
22580.1          720.90     0          0          0          0
22586            721.55     0          0          0          0
22583.3          718.85     0          0          0          0
22583.2          722.63     0          0          0          0
22583.1          722.32     0          0          0          0
22584.1          721.24     0          0          0          0
22587            721.22     0          0          0          0
5                718.65     0          0          0          0
1819             722.19     0          0          0          0
1821             720.83     0          0          0          0
1914             722.71     0          0          0          0
1916             722.71     0          0          0          0
1902             721.22     0          0          0          0
1904             721.71     0          0          0          0

[CONDUITS]
;;Name           From             To               Length     Roughness  InOffset   OutOffset  InitFlow   MaxFlow
;;-------------- ---------------- ---------------- ---------- ---------- ---------- ---------- ---------- ----------
549              ?                ?                313.00     0.0140     717.03     715.58     0          0
560              ?                ?                255.00     0.0140     711.18     709.66     0          0
563              ?                ?                215.00     0.0140     712.92     712.06     0          0
564              ?                ?                220.00     0.0140     712.06     711.18     0          0
566              ?                ?                210.00     0.0140     717.85     717.03     0          0
1031             ?                ?                40.00      0.0140     713.73     713.62     0          0
1032             ?                ?                150.00     0.0140     713.62     712.92     0          0
1587             ?                ?                263.00     0.0140     716.34     715.58     0          0
557              22582            22583            122.00     0.0140     714.98     713.96     0          0
1650             ?                ?                200.00     0.0140     715.35     714.54     0          0
1651             ?                ?                200.00     0.0140     714.54     713.73     0          0
1653             ?                ?                68.50      0.0140     715.74     715.36     0          0
1654             ?                ?                68.50      0.0140     715.36     714.98     0          0
1656             ?                ?                160.00     0.0140     715.58     714.77     0          0
1657             ?                ?                160.00     0.0140     714.77     713.96     0          0
1660             ?                ?                128.50     0.0140     717.52     717.08     0          0
1662             ?                ?                64.25      0.0140     718.01     717.76     0          0
1663             ?                ?                64.25      0.0140     717.76     717.52     0          0
1665             ?                ?                62.50      0.0140     718.07     717.96     0          0
1666             ?                ?                62.50      0.0140     717.96     717.85     0          0
1668             ?                ?                105.50     0.0140     713.96     713.79     0          0
1669             ?                ?                105.50     0.0140     713.79     713.62     0          0

[XSECTIONS]
;;Link           Shape        Geom1      Geom2      Geom3      Geom4      Barrels
;;-------------- ------------ ---------- ---------- ---------- ---------- ----------
549              CIRCULAR     0.67       0          0          0          1
560              CIRCULAR     0.67       0          0          0          1
563              CIRCULAR     0.67       0          0          0          1
564              CIRCULAR     0.67       0          0          0          1
566              CIRCULAR     0.67       0          0          0          1
1031             CIRCULAR     0.67       0          0          0          1
1032             CIRCULAR     0.67       0          0          0          1
1587             CIRCULAR     0.67       0          0          0          1
557              CIRCULAR     0.67       0          0          0          1
1650             CIRCULAR     0.67       0          0          0          1
1651             CIRCULAR     0.67       0          0          0          1
1653             CIRCULAR     0.67       0          0          0          1
1654             CIRCULAR     0.67       0          0          0          1
1656             CIRCULAR     0.67       0          0          0          1
1657             CIRCULAR     0.67       0          0          0          1
1660             CIRCULAR     0.67       0          0          0          1
1662             CIRCULAR     0.67       0          0          0          1
1663             CIRCULAR     0.67       0          0          0          1
1665             CIRCULAR     0.67       0          0          0          1
1666             CIRCULAR     0.67       0          0          0          1
1668             CIRCULAR     0.67       0          0          0          1
1669             CIRCULAR     0.67       0          0          0          1

[LOSSES]
;;Link           Inlet      Outlet     Average    Flap Gate
;;-------------- ---------- ---------- ---------- ----------
549              0          0          0          NO
560              0          0          0          NO
563              0          0          0          NO
564              0          0          0          NO
566              0          0          0          NO
1031             0          0          0          NO
1032             0          0          0          NO
1587             0          0          0          NO
557              0          0          0          NO
1650             0          0          0          NO
1651             0          0          0          NO
1653             0          0          0          NO
1654             0          0          0          NO
1656             0          0          0          NO
1657             0          0          0          NO
1660             0          0          0          NO
1662             0          0          0          NO
1663             0          0          0          NO
1665             0          0          0          NO
1666             0          0          0          NO
1668             0          0          0          NO
1669             0          0          0          NO

[COORDINATES]
;;Node           X-Coord            Y-Coord
;;-------------- ------------------ ------------------
228031           -6971.16           15559.08          
22585.1          -7094.24           14761.95          
22585            -7359.13           14748.21          
22584            -7353.61           15059.49          
22583            -7430.87           15379.93          
22582            -7314.98           15357.04          
22581            -7237.72           15471.48          
22580            -7226.69           15553.88          
22580.2          -7659.31           15535.97          
22580.1          -7441.90           15544.73          
22586            -7580.16           14744.11          
22583.3          -7674.91           14986.16          
22583.2          -7670.92           15384.34          
22583.1          -7639.06           15389.83          
22584.1          -7168.17           15060.36          
22587            -7644.17           14645.35          
5                -7672.76           15167.86          
1819             -7299.13           15377.34          
1821             -7391.89           15224.51          
1914             -7140.66           14761.74          
1916             -7113.10           14763.98          
1902             -7603.97           14710.54          
1904             -7507.01           15386.71          

[MAP]
DIMENSIONS -7674.91 14645.35 -6971.16 15559.08
Units      None

[REPORT]
INPUT            YES
SUBCATCHMENTS    ALL
NODES            ALL
LINKS            ALL



