;; SWMM5 .inp converted from XPSWMM .xp file
;; Generated by XPSWMM Card Reader
;; Source format: XP_CARD | Original title: Lexington Expansion Area 2A, B, and C

[TITLE]
;;Project Title/Notes
Lexington Expansion Area 2A, B, and C

[OPTIONS]
FLOW_UNITS           CFS
INFILTRATION         HORTON
FLOW_ROUTING         DYNWAVE
LINK_OFFSETS         DEPTH
MIN_SLOPE            0.0
ALLOW_PONDING        NO
SKIP_STEADY_STATE    NO
ROUTING_STEP         00:00:15
VARIABLE_STEP        0.75
INERTIAL_DAMPING     PARTIAL
NORMAL_FLOW_LIMITED  BOTH
MAX_TRIALS           50

[JUNCTIONS]
;;Name           Elev       MaxDepth   InitDepth  SurDepth   Aponded
;;-------------- ---------- ---------- ---------- ---------- ----------
d135i            1071.00    0          0          0          0
d79i             1071.00    0          0          0          0
d135             1049.00    0          0          0          0
d136i            1067.00    0          0          0          0
d133i            1067.00    0          0          0          0
d79              1041.50    0          0          0          0
d125             1063.00    0          0          0          0
d134             1037.00    0          0          0          0
d134i            1063.00    0          0          0          0
d76i             1077.00    0          0          0          0
d83i             1069.20    0          0          0          0
d137i            1064.80    0          0          0          0
d125i            1072.20    0          0          0          0
d80              1035.00    0          0          0          0
d136             1039.00    0          0          0          0
d84i             1064.00    0          0          0          0
d91i             1049.00    0          0          0          0
d91              1033.00    0          0          0          0
d137             1037.00    0          0          0          0
d80i             1067.20    0          0          0          0
d92i             1077.10    0          0          0          0
d75              1052.60    0          0          0          0
d133             1029.00    0          0          0          0
d75i             1057.00    0          0          0          0
d93              1031.00    0          0          0          0
d124             1037.00    0          0          0          0
d139i            1055.10    0          0          0          0
d93i             1062.90    0          0          0          0
d138i            1062.20    0          0          0          0
d138             1033.00    0          0          0          0
d124i            1068.10    0          0          0          0
d76              1039.00    0          0          0          0
d156i            1069.00    0          0          0          0
d156             1057.00    0          0          0          0
d132             1027.00    0          0          0          0
d139             1031.70    0          0          0          0
d142i            1046.90    0          0          0          0
d77i             1059.00    0          0          0          0
d132i            1038.90    0          0          0          0
d83              1039.00    0          0          0          0
d94i             1065.70    0          0          0          0
d74i             1045.00    0          0          0          0
d92              1030.10    0          0          0          0
d153i            1065.00    0          0          0          0
d155             1018.00    0          0          0          0
d2093            1027.00    0          0          0          0
d122             1019.90    0          0          0          0
d110i            1075.00    0          0          0          0
d140             1029.00    0          0          0          0
d142             1023.00    0          0          0          0
d2132            1023.00    0          0          0          0
d131             1018.00    0          0          0          0
d122i            1073.60    0          0          0          0
d140i            1066.80    0          0          0          0
d97i             1055.00    0          0          0          0
d94              1023.00    0          0          0          0
d151i            1059.00    0          0          0          0
d74              1016.90    0          0          0          0
d130i            1033.10    0          0          0          0
d155i            1061.00    0          0          0          0
d152i            1064.60    0          0          0          0
d131i            1048.80    0          0          0          0
d73i             1035.90    0          0          0          0
d2131            1016.40    0          0          0          0
d96              1020.00    0          0          0          0
d111i            1057.00    0          0          0          0
d154i            1063.00    0          0          0          0
d73              1010.60    0          0          0          0
d2122            1017.00    0          0          0          0
d130             1011.00    0          0          0          0
d110             1049.00    0          0          0          0
d77              1027.00    0          0          0          0
d78i             1049.80    0          0          0          0
d129             1029.00    0          0          0          0
d71i             1058.90    0          0          0          0
d153             1043.00    0          0          0          0
d95i             1054.20    0          0          0          0
d129i            1055.30    0          0          0          0
d72i             1041.00    0          0          0          0
d96i             1045.50    0          0          0          0
d98              1019.70    0          0          0          0
d154             1027.00    0          0          0          0
d120i            1051.10    0          0          0          0
d2073            1006.20    0          0          0          0
d152             1043.00    0          0          0          0
d95              1037.00    0          0          0          0
d147i            1054.50    0          0          0          0
d121i            1042.80    0          0          0          0
d128i            1043.90    0          0          0          0
d98i             1038.00    0          0          0          0
d111             1037.00    0          0          0          0
d121             1007.00    0          0          0          0
d71              1033.10    0          0          0          0
d157i            1053.00    0          0          0          0
d72              1002.00    0          0          0          0
d78              1000.00    0          0          0          0
d100i            1042.70    0          0          0          0
d99              1019.00    0          0          0          0
d146i            1051.00    0          0          0          0
d151             1025.00    0          0          0          0
d119i            1055.00    0          0          0          0
d2078            1009.50    0          0          0          0
d99i             1033.00    0          0          0          0
d2099            1009.00    0          0          0          0
d66i             1073.00    0          0          0          0
d109i            1051.90    0          0          0          0
d2154            1021.00    0          0          0          0
d85i             1046.00    0          0          0          0
d150i            1045.80    0          0          0          0
d2121            1006.80    0          0          0          0
d109             1029.30    0          0          0          0
d70              1007.30    0          0          0          0
d69              1007.00    0          0          0          0
d147             1025.00    0          0          0          0
d127i            1049.00    0          0          0          0
d150             1013.00    0          0          0          0
d55i             1075.00    0          0          0          0
d68              1005.00    0          0          0          0
d146             1017.00    0          0          0          0
d70i             1044.50    0          0          0          0
d69i             1047.80    0          0          0          0
d2068            1001.00    0          0          0          0
d120             1005.00    0          0          0          0
d149i            1034.20    0          0          0          0
d108             1026.00    0          0          0          0
d68i             1031.70    0          0          0          0
d144i            1041.70    0          0          0          0
d2165            1013.00    0          0          0          0
d67i             1018.00    0          0          0          0
d157             1011.20    0          0          0          0
d67              997.00     0          0          0          0
d3157            1007.00    0          0          0          0
d145i            1019.00    0          0          0          0
d162             1006.80    0          0          0          0
d2157            1011.00    0          0          0          0
d2146            1011.00    0          0          0          0
d119             1027.00    0          0          0          0
d117i            1047.10    0          0          0          0
d163             996.00     0          0          0          0
d100             999.00     0          0          0          0
d2120            1001.00    0          0          0          0
d66              1025.00    0          0          0          0
d107i            1048.00    0          0          0          0
d161             1005.00    0          0          0          0
d148i            1011.00    0          0          0          0
d149             1004.80    0          0          0          0
d145             1007.00    0          0          0          0
d108i            1043.00    0          0          0          0
d81              990.00     0          0          0          0
d163i            1039.40    0          0          0          0
d3120            997.00     0          0          0          0
d118             1009.60    0          0          0          0
d165             1033.90    0          0          0          0
d3068            995.00     0          0          0          0
d148             999.00     0          0          0          0
d160             998.80     0          0          0          0
d164             1035.00    0          0          0          0
d126i            1023.70    0          0          0          0
d2160            998.50     0          0          0          0
d65              994.40     0          0          0          0
d162i            1035.70    0          0          0          0
d2081            993.50     0          0          0          0
d107             1005.00    0          0          0          0
d118i            1013.50    0          0          0          0
d143i            1012.60    0          0          0          0
d103i            1044.40    0          0          0          0
d126             995.00     0          0          0          0
d160i            1040.60    0          0          0          0
d56i             1050.00    0          0          0          0
d117             994.80     0          0          0          0
d81i             1045.00    0          0          0          0
d165i            1063.00    0          0          0          0
d65i             1041.00    0          0          0          0
d106i            1050.20    0          0          0          0
d55              1023.00    0          0          0          0
d167i            1057.00    0          0          0          0
d161i            1049.90    0          0          0          0
d170             993.00     0          0          0          0
d56              1022.80    0          0          0          0
d159             995.00     0          0          0          0
d64              993.00     0          0          0          0
d112i            1040.10    0          0          0          0
d64i             1043.00    0          0          0          0
d143             993.40     0          0          0          0
d54              1017.00    0          0          0          0
d113i            1034.70    0          0          0          0
d171             993.00     0          0          0          0
d116             993.00     0          0          0          0
d57i             1045.00    0          0          0          0
d115i            1035.10    0          0          0          0
d164i            1062.50    0          0          0          0
d54i             1047.00    0          0          0          0
d2054            1013.00    0          0          0          0
d51i             1055.00    0          0          0          0
d53              999.20     0          0          0          0
d2053            1012.50    0          0          0          0
d158i            1032.50    0          0          0          0
d172             993.00     0          0          0          0
d63i             1037.00    0          0          0          0
d82i             1042.90    0          0          0          0
d105i            1005.00    0          0          0          0
d106             995.00     0          0          0          0
d36i             1061.30    0          0          0          0
d159i            1043.20    0          0          0          0
d104i            1017.00    0          0          0          0
d57              1007.10    0          0          0          0
d105             993.00     0          0          0          0
d114i            1006.60    0          0          0          0
d82              993.00     0          0          0          0
d115             993.00     0          0          0          0
d53i             1031.00    0          0          0          0
d112             993.00     0          0          0          0
d113             995.30     0          0          0          0
d35i             1047.00    0          0          0          0
d51              1033.00    0          0          0          0
d103             1004.60    0          0          0          0
d102i            1028.20    0          0          0          0
d114             993.00     0          0          0          0
d52i             1040.80    0          0          0          0
d63              994.10     0          0          0          0
d104             993.00     0          0          0          0
d60i             1041.00    0          0          0          0
d36              1033.00    0          0          0          0
d2057            999.00     0          0          0          0
d102             993.00     0          0          0          0
d50i             1041.00    0          0          0          0
d37i             1049.30    0          0          0          0
d58i             1009.20    0          0          0          0
d59i             1021.20    0          0          0          0
d50              995.00     0          0          0          0
d59              993.30     0          0          0          0
d60              993.10     0          0          0          0
d37              1013.00    0          0          0          0
d38i             1029.10    0          0          0          0
d41i             1037.00    0          0          0          0
d35              1005.00    0          0          0          0
d43i             1031.00    0          0          0          0
d47i             1035.20    0          0          0          0
d38              1003.00    0          0          0          0
d48              994.00     0          0          0          0
d61i             1004.90    0          0          0          0
d34              999.00     0          0          0          0
d34i             1022.00    0          0          0          0
d61              993.00     0          0          0          0
d48i             1037.00    0          0          0          0
d33i             1037.00    0          0          0          0
d42i             1027.40    0          0          0          0
d2034            995.00     0          0          0          0
d46i             1029.70    0          0          0          0
d41              989.00     0          0          0          0
d49i             1029.00    0          0          0          0
d42              987.00     0          0          0          0
d33              999.00     0          0          0          0
d2042            986.80     0          0          0          0
d32              976.00     0          0          0          0
d44i             1004.30    0          0          0          0
d32i             1015.00    0          0          0          0
d31              983.00     0          0          0          0
d49              993.00     0          0          0          0
d31i             1031.00    0          0          0          0
d47              993.00     0          0          0          0
d43              977.00     0          0          0          0
d17              993.00     0          0          0          0
d44              971.00     0          0          0          0
d45i             984.80     0          0          0          0
d29              964.00     0          0          0          0
d28              969.00     0          0          0          0
d30              985.00     0          0          0          0
d62i             993.00     0          0          0          0
d10i             1049.80    0          0          0          0
d29i             1003.00    0          0          0          0
d27              965.00     0          0          0          0
d16              963.00     0          0          0          0
d14i             1014.80    0          0          0          0
d46              959.00     0          0          0          0
d16i             989.00     0          0          0          0
d17i             1037.00    0          0          0          0
d2027            957.00     0          0          0          0
d28i             1016.10    0          0          0          0
d27i             998.90     0          0          0          0
d25              956.90     0          0          0          0
d15i             989.10     0          0          0          0
d9i              1031.00    0          0          0          0
d25i             979.00     0          0          0          0
d30i             1047.00    0          0          0          0
d15              956.80     0          0          0          0
d26i             1031.00    0          0          0          0
d26              967.00     0          0          0          0
d11              1027.30    0          0          0          0
d10              1013.00    0          0          0          0
d2015            956.70     0          0          0          0
d13i             976.00     0          0          0          0
d24              956.60     0          0          0          0
d14              977.00     0          0          0          0
d24i             992.80     0          0          0          0
d23i             1012.50    0          0          0          0
d12i             999.40     0          0          0          0
d13              968.00     0          0          0          0
d23              956.50     0          0          0          0
d9               999.00     0          0          0          0
d22              956.40     0          0          0          0
d6i              1044.70    0          0          0          0
d11i             1049.00    0          0          0          0
d22i             987.00     0          0          0          0
d2022            956.30     0          0          0          0
d8               975.00     0          0          0          0
d21              973.00     0          0          0          0
d12              955.00     0          0          0          0
d8i              1016.80    0          0          0          0
d2012            945.80     0          0          0          0
d21i             1019.00    0          0          0          0
d4i              1001.80    0          0          0          0
d7i              972.20     0          0          0          0
d7               945.50     0          0          0          0
d6               977.00     0          0          0          0
d5               967.00     0          0          0          0
d4               953.00     0          0          0          0
d2004            952.80     0          0          0          0
d3i              1001.60    0          0          0          0
d2i              956.10     0          0          0          0
d2               951.00     0          0          0          0
d5i              1009.00    0          0          0          0
d1               950.80     0          0          0          0
d1i              989.00     0          0          0          0
d2001            950.50     0          0          0          0
b1004            1016.00    0          0          0          0
b1005            1037.00    0          0          0          0
b1006            1009.00    0          0          0          0
b1007            1033.00    0          0          0          0
b1008            1022.00    0          0          0          0
b1011            1073.00    0          0          0          0
b1012            1019.00    0          0          0          0
b101i            1071.00    0          0          0          0
b102i            1036.00    0          0          0          0
b103i            1071.00    0          0          0          0
b104i            1034.00    0          0          0          0
b105i            1081.00    0          0          0          0
b106i            1054.00    0          0          0          0
b107i            1075.00    0          0          0          0
b108i            1036.00    0          0          0          0
b109i            1045.00    0          0          0          0
b110i            1038.00    0          0          0          0
b111i            1074.00    0          0          0          0
b112i            1040.00    0          0          0          0
b113i            1045.00    0          0          0          0
b2001            1035.00    0          0          0          0
b2002            1052.00    0          0          0          0
b2003            1026.00    0          0          0          0
b2004            1047.00    0          0          0          0
b2005            1020.00    0          0          0          0
b2006            1043.00    0          0          0          0
b201i            1052.00    0          0          0          0
b202i            1068.00    0          0          0          0
b203i            1046.00    0          0          0          0
b204i            1074.00    0          0          0          0
b205i            1054.00    0          0          0          0
b206i            1073.00    0          0          0          0
b207i            1048.00    0          0          0          0
b208i            1058.00    0          0          0          0
b209i            1038.00    0          0          0          0
b210i            1077.00    0          0          0          0
b3002            1024.00    0          0          0          0
b3003            1046.00    0          0          0          0
b3004            1017.00    0          0          0          0
b3005            1037.00    0          0          0          0
b3006            1010.00    0          0          0          0
b3007            1031.00    0          0          0          0
b3008            1000.00    0          0          0          0
b3010            1020.00    0          0          0          0
b301i            1051.00    0          0          0          0
b302i            1077.00    0          0          0          0
b303i            1048.00    0          0          0          0
b304i            1075.00    0          0          0          0
b305i            1046.00    0          0          0          0
b306i            1067.00    0          0          0          0
b307i            1040.00    0          0          0          0
b308i            1057.00    0          0          0          0
b309i            1026.00    0          0          0          0
b310i            1047.00    0          0          0          0
b311i            1043.00    0          0          0          0
b312i            1055.00    0          0          0          0
b4001            1004.00    0          0          0          0
b4002            1028.00    0          0          0          0
b4009            995.00     0          0          0          0
b4011            1014.00    0          0          0          0
b4012            988.50     0          0          0          0
b4013            1042.00    0          0          0          0
b4014            1025.00    0          0          0          0
b4015            1044.00    0          0          0          0
b4016            1050.00    0          0          0          0
b4017            1041.00    0          0          0          0
b4018            997.00     0          0          0          0
b401i            1069.00    0          0          0          0
b402i            1028.00    0          0          0          0
b403i            1053.00    0          0          0          0
b404i            1058.00    0          0          0          0
b405i            1069.00    0          0          0          0
b406i            1054.00    0          0          0          0
b407i            1058.00    0          0          0          0
b408i            1022.00    0          0          0          0
b409i            1049.00    0          0          0          0
b410i            1026.00    0          0          0          0
b411i            1075.00    0          0          0          0
b412i            1038.00    0          0          0          0
b413i            1049.00    0          0          0          0
b414i            1024.00    0          0          0          0
b415i            1056.00    0          0          0          0
b416i            1022.00    0          0          0          0
b417i            1045.00    0          0          0          0
b418i            1020.00    0          0          0          0
c9i              1019.00    0          0          0          0
c9               971.00     0          0          0          0
c8i              1015.00    0          0          0          0
c8               969.00     0          0          0          0
c7i              1022.00    0          0          0          0
c75i             1028.00    0          0          0          0
c74i             1007.00    0          0          0          0
c74              968.00     0          0          0          0
c73i             1031.00    0          0          0          0
c73              992.00     0          0          0          0
c72i             988.00     0          0          0          0
c71i             1010.00    0          0          0          0
c70i             1028.00    0          0          0          0
c70              972.00     0          0          0          0
c7               975.00     0          0          0          0
c6i              1046.00    0          0          0          0
c69i             1009.00    0          0          0          0
c69              968.00     0          0          0          0
c68i             1032.00    0          0          0          0
c67i             1006.00    0          0          0          0
c67              968.00     0          0          0          0
c66i             1040.00    0          0          0          0
c66              1007.00    0          0          0          0
c65i             1036.00    0          0          0          0
c64i             1035.00    0          0          0          0
c64              1012.00    0          0          0          0
c63i             1004.00    0          0          0          0
c63              968.00     0          0          0          0
c62i             1044.00    0          0          0          0
c62              1016.00    0          0          0          0
c61i             1036.00    0          0          0          0
c60i             1016.00    0          0          0          0
c5i              1022.00    0          0          0          0
c59i             1033.00    0          0          0          0
c58i             994.00     0          0          0          0
c58              968.00     0          0          0          0
c57i             1030.00    0          0          0          0
c57              994.00     0          0          0          0
c56i             1009.00    0          0          0          0
c56              968.00     0          0          0          0
c55i             994.00     0          0          0          0
c55              968.00     0          0          0          0
c54i             1029.00    0          0          0          0
c53i             1021.00    0          0          0          0
c52i             1011.00    0          0          0          0
c52              976.00     0          0          0          0
c51i             1017.00    0          0          0          0
c50i             1035.00    0          0          0          0
c5               977.00     0          0          0          0
c4i              1003.00    0          0          0          0
c49i             1028.00    0          0          0          0
c48i             1047.00    0          0          0          0
c47i             1025.00    0          0          0          0
c46i             1028.00    0          0          0          0